/*--------------------------------*- C++ -*----------------------------------*\
| =========                 |                                                 |
| \\      /  F ield         | foam-extend: Open Source CFD                    |
|  \\    /   O peration     | Version:     5.0                                |
|   \\  /    A nd           | Web:         http://www.foam-extend.org         |
|    \\/     M anipulation  | For copyright notice see file Copyright         |
\*---------------------------------------------------------------------------*/
FoamFile
{
    version     2.0;
    format      ascii;
    class       volScalarField;
    object      G;
}
// * * * * * * * * * * * * * * * * * * * * * * * * * * * * * * * * * * * * * //

dimensions      [1 0 -3 0 0 0 0];

internalField   uniform 0;

boundaryField
{
    outlet
    {
        type            MarshakRadiation;
        T               T;
        emissivity      1;
        value           uniform 0;
    }
    sides
    {
        type            MarshakRadiation;
        T               T;
        emissivity      1;
        value           uniform 0;
    }
    base
    {
        type            MarshakRadiation;
        T               T;
        emissivity      1;
        value           uniform 0;
    }
    inlet
    {
        type            MarshakRadiation;
        T               T;
        emissivity      1;
        value           uniform 0;
    }
    frontAndBack
    {
        type        empty;
    }
}

// ************************************************************************* //
