/*--------------------------------*- C++ -*----------------------------------*\
| =========                 |                                                 |
| \\      /  F ield         | foam-extend: Open Source CFD                    |
|  \\    /   O peration     | Version:     5.0                                |
|   \\  /    A nd           | Web:         http://www.foam-extend.org         |
|    \\/     M anipulation  | For copyright notice see file Copyright         |
\*---------------------------------------------------------------------------*/
FoamFile
{
    version     2.0;
    format      ascii;
    class       polyBoundaryMesh;
    location    "constant/polyMesh";
    object      boundary;
}
// * * * * * * * * * * * * * * * * * * * * * * * * * * * * * * * * * * * * * //

5
(
    Inflow
    {
        type            patch;
        nFaces          112;
        startFace       10592;
    }
    Lower
    {
        type            patch;
        nFaces          48;
        startFace       10704;
    }
    frontAndBack
    {
        type            empty;
        nFaces          10752;
        startFace       10752;
    }
    Outflow
    {
        type            patch;
        nFaces          112;
        startFace       21504;
    }
    Upper
    {
        type            patch;
        nFaces          48;
        startFace       21616;
    }
)

// ************************************************************************* //
