/*--------------------------------*- C++ -*----------------------------------*\
| =========                 |                                                 |
| \\      /  F ield         | foam-extend: Open Source CFD                    |
|  \\    /   O peration     | Version:     5.0                                |
|   \\  /    A nd           | Web:         http://www.foam-extend.org         |
|    \\/     M anipulation  | For copyright notice see file Copyright         |
\*---------------------------------------------------------------------------*/
FoamFile
{
    version     2.0;
    format      ascii;
    class       dictionary;
    location    "system";
    object      fvSolution;
}
// * * * * * * * * * * * * * * * * * * * * * * * * * * * * * * * * * * * * * //

solvers
{
    p
    {
        solver          BiCGStab;
        preconditioner  DILU;
        tolerance       1e-8;
        relTol          0;
    }

    rho
    {
        solver          BiCGStab;
        preconditioner  DILU;
        tolerance       1e-8;
        relTol          0;
    }

    rhoU
    {
        solver          BiCGStab;
        preconditioner  DILU;
        tolerance       1e-8;
        relTol          0;
    }

    rhoE
    {
        solver          BiCGStab;
        preconditioner  DILU;
        tolerance       1e-8;
        relTol          0;
    }
}

PISO
{
    nCorrectors     2;
    nNonOrthogonalCorrectors 0;
}

// ************************************************************************* //
