/*--------------------------------*- C++ -*----------------------------------*\
| =========                 |                                                 |
| \\      /  F ield         | foam-extend: Open Source CFD                    |
|  \\    /   O peration     | Version:     5.0                                |
|   \\  /    A nd           | Web:         http://www.foam-extend.org         |
|    \\/     M anipulation  | For copyright notice see file Copyright         |
\*---------------------------------------------------------------------------*/
FoamFile
{
    version     2.0;
    format      ascii;
    class       dictionary;
    location    "constant";
    object      engineGeometry;
}
// * * * * * * * * * * * * * * * * * * * * * * * * * * * * * * * * * * * * * //

engineMesh      layered;

conRodLength    conRodLength [ 0 1 0 0 0 0 0 ] 0.147;

bore            bore [ 0 1 0 0 0 0 0 ] 0.092;

stroke          stroke [ 0 1 0 0 0 0 0 ] 0.08423;

clearance       clearance [ 0 1 0 0 0 0 0 ] 0.00115;

rpm             rpm [ 0 0 -1 0 0 0 0 ] 1500;

// ************************************************************************* //
