/*--------------------------------*- C++ -*----------------------------------*\
| =========                 |                                                 |
| \\      /  F ield         | foam-extend: Open Source CFD                    |
|  \\    /   O peration     | Version:     5.1                                |
|   \\  /    A nd           | Web:         http://www.foam-extend.org         |
|    \\/     M anipulation  | For copyright notice see file Copyright         |
\*---------------------------------------------------------------------------*/
FoamFile
{
    version     2.0;
    format      ascii;
    class       dictionary;
    location    "system";
    object      controlDict;
}
// * * * * * * * * * * * * * * * * * * * * * * * * * * * * * * * * * * * * * //

application     scalarTransportDyMFoam;

startFrom       startTime;

startTime       0.0;

stopAt          endTime;

endTime         0.0015;
deltaT          2e-6;

writeControl    timeStep;
writeInterval   10;

purgeWrite      0;

writeFormat     ascii;

writePrecision  10;

writeCompression compressed;

timeFormat      general;

timePrecision   10;

runTimeModifiable yes;

adjustTimeStep  no;

maxCo           0.9;
maxAlphaCo      0.9;

maxDeltaT       1e-6;

functions
(
    minMaxU
    {
        type minMaxField;
        functionObjectLibs ("libfieldFunctionObjects.so");
        name U;
    }
    minMaxT
    {
        type minMaxField;
        functionObjectLibs ("libfieldFunctionObjects.so");
        name T;
    }
);

// ************************************************************************* //
