/*--------------------------------*- C++ -*----------------------------------*\
| =========                 |                                                 |
| \\      /  F ield         | foam-extend: Open Source CFD                    |
|  \\    /   O peration     | Version:     5.0                                |
|   \\  /    A nd           | Web:         http://www.foam-extend.org         |
|    \\/     M anipulation  | For copyright notice see file Copyright         |
\*---------------------------------------------------------------------------*/
FoamFile
{
    version     2.0;
    format      ascii;
    class       dictionary;
    object      fvSolution;
}
// * * * * * * * * * * * * * * * * * * * * * * * * * * * * * * * * * * * * * //

solvers
{
    pcorr
    {
        solver           PCG;
        preconditioner   DIC;

        minIter          0;
        maxIter          1000;
        tolerance        1e-02;
        relTol           0;
    }

    p
    {
        solver           PCG;
        preconditioner   DIC;

        minIter          0;
        maxIter          1000;
        tolerance        1e-06;
        relTol           0.05;
    }

    pFinal
    {
        solver           PCG;
        preconditioner   DIC;

        minIter          0;
        maxIter          1000;
        tolerance        1e-06;
        relTol           0;
    }

    U
    {
        solver           BiCGStab;
        preconditioner   DILU;

        minIter          0;
        maxIter          1000;
        tolerance        1e-05;
        relTol           0;
    }
}

PIMPLE
{
    nOuterCorrectors 2;
    nCorrectors     2;
    nNonOrthogonalCorrectors 0;
}

// ************************************************************************* //
