/*--------------------------------*- C++ -*----------------------------------*\
| =========                 |                                                 |
| \\      /  F ield         | foam-extend: Open Source CFD                    |
|  \\    /   O peration     | Version:     5.0                                |
|   \\  /    A nd           | Web:         http://www.foam-extend.org         |
|    \\/     M anipulation  | For copyright notice see file Copyright         |
\*---------------------------------------------------------------------------*/
FoamFile
{
    version     2.0;
    format      ascii;
    class       dictionary;
    location    "system";
    object      faSolution;
}
// * * * * * * * * * * * * * * * * * * * * * * * * * * * * * * * * * * * * * //

solvers
{
    Us
    {
        solver          BiCGStab;
        preconditioner  ILU0;
        tolerance       1e-07;
        relTol          0.01;
    }

    h
    {
        solver          BiCGStab;
        preconditioner  ILU0;
        tolerance       1e-07;
        relTol          0.01;
    }
}

nOuterCorrectors 15;

relaxationFactors
{
    h 0.5;
    Us 0.5;
}

// ************************************************************************* //
