/*--------------------------------*- C++ -*----------------------------------*\
| =========                 |                                                 |
| \\      /  F ield         | foam-extend: Open Source CFD                    |
|  \\    /   O peration     | Version:     4.1                                |
|   \\  /    A nd           | Web:         http://www.foam-extend.org         |
|    \\/     M anipulation  |                                                 |
\*---------------------------------------------------------------------------*/
FoamFile
{
    version     2.0;
    format      ascii;
    class       dictionary;
    location    "system";
    object      fvSolution;
}
// * * * * * * * * * * * * * * * * * * * * * * * * * * * * * * * * * * * * * //

solvers
{
    p_rgh
    {
        solver          CG;
        preconditioner  Cholesky;
        tolerance       1e-07;
        relTol          0.0;
    }
    p_rghFinal
    {
        solver          CG;
        preconditioner  Cholesky;
        tolerance       1e-07;
        relTol          0;
    }
    U
    {
        solver          BiCGStab;
        preconditioner  DILU;
        tolerance       1e-07;
        relTol          0;
    }
    T
    {
        solver          BiCGStab;
        preconditioner  DILU;
        tolerance       1e-07;
        relTol          0;
    }
    k
    {
        solver          BiCGStab;
        preconditioner  DILU;
        tolerance       1e-07;
        relTol          0;
    }
    epsilon
    {
        solver          BiCGStab;
        preconditioner  DILU;
        tolerance       1e-07;
        relTol          0;
    }
}

PISO
{
    momentumPredictor yes;
    nCorrectors     2;
    nNonOrthogonalCorrectors 0;
    p_rghRefCell        0;
    p_rghRefValue       0;
}


// ************************************************************************* //
