/*--------------------------------*- C++ -*----------------------------------*\
| =========                 |                                                 |
| \\      /  F ield         | foam-extend: Open Source CFD                    |
|  \\    /   O peration     | Version:     5.0                                |
|   \\  /    A nd           | Web:         http://www.foam-extend.org         |
|    \\/     M anipulation  | For copyright notice see file Copyright         |
\*---------------------------------------------------------------------------*/
FoamFile
{
    version     2.0;
    format      ascii;
    class       dictionary;
    location    "system";
    object      meshDict;
}
// * * * * * * * * * * * * * * * * * * * * * * * * * * * * * * * * * * * * * //

surfaceFile "elbow_90degree.stl";

maxCellSize 5.0;

boundaryCellSize 3.0;

minCellSize 1.00;

localRefinement
{
    "ringArea.*"
    {
        cellSize 0.2;
    }
}

boundaryLayers
{
    nLayers 5;

    thicknessRatio 1.1;

    maxFirstLayerThickness 0.5;

//    patchBoundaryLayers
//    {
//    }
}

renameBoundary
{
    defaultName		fixedWalls;
    defaultType		wall;

    newPatchNames
    {
        "inlet.*"
        {
            newName     inlet;
            type     patch;
        }

        "outlet.*"
        {
            newName     outlet;
            type     patch;
        }
    }
}


// ************************************************************************* //
