/*--------------------------------*- C++ -*----------------------------------*\
| =========                 |                                                 |
| \\      /  F ield         | foam-extend: Open Source CFD                    |
|  \\    /   O peration     | Version:     5.0                                |
|   \\  /    A nd           | Web:         http://www.foam-extend.org         |
|    \\/     M anipulation  | For copyright notice see file Copyright         |
\*---------------------------------------------------------------------------*/
FoamFile
{
    version     2.0;
    format      ascii;
    class       dictionary;
    location    "system";
    object      meshDict;
}
// * * * * * * * * * * * * * * * * * * * * * * * * * * * * * * * * * * * * * //

surfaceFile "geom2.stl";

maxCellSize 10;

boundaryCellSize 1.25;

minCellSize 2.0;

localRefinement
{
    patch001
    {
        cellSize 0.625;
    }
    patch002
    {
        cellSize 0.625;
    }
    patch003
    {
        cellSize 0.625;
    }
    patch004
    {
        cellSize 0.625;
    }
    patch005
    {
        cellSize 0.625;
    }
    patch006
    {
        cellSize 0.625;
    }
    patch007
    {
        cellSize 0.625;
    }
    patch008
    {
        cellSize 0.625;
    }
}

meshQualitySettings
{
    maxNonOrthogonality        50;
}

// ************************************************************************* //
