/*--------------------------------*- C++ -*----------------------------------*\
| =========                 |                                                 |
| \\      /  F ield         | foam-extend: Open Source CFD                    |
|  \\    /   O peration     | Version:     5.0                                |
|   \\  /    A nd           | Web:         http://www.foam-extend.org         |
|    \\/     M anipulation  | For copyright notice see file Copyright         |
\*---------------------------------------------------------------------------*/
FoamFile
{
    version     2.0;
    format      ascii;
    class       volScalarField;
    location    "0";
    object      epsilon;
}
// * * * * * * * * * * * * * * * * * * * * * * * * * * * * * * * * * * * * * //

dimensions      [ 0 2 -3 0 0 0 0 ];

internalField   uniform 1;

boundaryField
{
    inlet
    {
        type            turbulentMixingLengthDissipationRateInlet;
        mixingLength    0.01;       // 1cm - half channel height
        value           uniform 1;
    }

    outlet1
    {
        type            inletOutlet;
        inletValue      uniform 1;
    }

    outlet2
    {
        type            inletOutlet;
        inletValue      uniform 1;
    }

    defaultFaces
    {
        type            epsilonWallFunction;
        value           $internalField;
    }
}

// ************************************************************************* //
