/*--------------------------------*- C++ -*----------------------------------*\
| =========                 |                                                 |
| \\      /  F ield         | foam-extend: Open Source CFD                    |
|  \\    /   O peration     | Version:     5.0                                |
|   \\  /    A nd           | Web:         http://www.foam-extend.org         |
|    \\/     M anipulation  | For copyright notice see file Copyright         |
\*---------------------------------------------------------------------------*/
FoamFile
{
    version     2.0;
    format      ascii;
    class       dictionary;
    object      fvSolution;
}
// * * * * * * * * * * * * * * * * * * * * * * * * * * * * * * * * * * * * * //

solvers
{
    U
    {
        solver           CG;
        preconditioner   Cholesky;
        tolerance        1e-06;
        relTol           0;
    }
    k
    {
        solver           BiCGStab;
        preconditioner   ILU0;
        tolerance        1e-06;
        relTol           0;
    }
    epsilon
    {
        solver           BiCGStab;
        preconditioner   ILU0;
        tolerance        1e-06;
        relTol           0;
    }
    R
    {
        solver           BiCGStab;
        preconditioner   ILU0;
        tolerance        1e-06;
        relTol           0;
    }
    nuTilda
    {
        solver           BiCGStab;
        preconditioner   ILU0;
        tolerance        1e-06;
        relTol           0;
    }
}

PISO
{
    nCorrectors     2;
    nNonOrthogonalCorrectors 0;
}

relaxationFactors
{
    U               0.5;
    k               0.7;
    epsilon         0.7;
    R               0.7;
    nuTilda         0.7;
}

// ************************************************************************* //
