/*--------------------------------*- C++ -*----------------------------------*\
| =========                 |                                                 |
| \\      /  F ield         | foam-extend: Open Source CFD                    |
|  \\    /   O peration     | Version:     5.0                                |
|   \\  /    A nd           | Web:         http://www.foam-extend.org         |
|    \\/     M anipulation  | For copyright notice see file Copyright         |
\*---------------------------------------------------------------------------*/
FoamFile
{
    version     2.0;
    format      ascii;
    class       dictionary;
    object      fvSolution;
}
// * * * * * * * * * * * * * * * * * * * * * * * * * * * * * * * * * * * * * //

solvers
{
    U               ICCG 1e-05 0.01;
}

stressedFoam
{
    nCorrectors     1;
    U               1e-06;
}

contactPatch
{
    contactUnderrelaxation 0.2;
    touchTolerance  5e-06;
    gradPatchID     1;
    dirPatchID      2;
}

// ************************************************************************* //
