/*--------------------------------*- C++ -*----------------------------------*\
| =========                 |                                                 |
| \\      /  F ield         | foam-extend: Open Source CFD                    |
|  \\    /   O peration     | Version:     5.0                                |
|   \\  /    A nd           | Web:         http://www.foam-extend.org         |
|    \\/     M anipulation  | For copyright notice see file Copyright         |
\*---------------------------------------------------------------------------*/
FoamFile
{
    version     2.0;
    format      	ascii;
    class       	dictionary;
    location    	"system";
    object      	meshDict;
}
// * * * * * * * * * * * * * * * * * * * * * * * * * * * * * * * * * * * * * //

maxCellSize	0.01;

surfaceFile	"geom.fms";

boundaryLayers
{
    nLayers         6;
    thicknessRatio  1.2;
}

// ************************************************************************* //
