/*--------------------------------*- C++ -*----------------------------------*\
| =========                 |                                                 |
| \\      /  F ield         | foam-extend: Open Source CFD                    |
|  \\    /   O peration     | Version:     5.0                                |
|   \\  /    A nd           | Web:         http://www.foam-extend.org         |
|    \\/     M anipulation  | For copyright notice see file Copyright         |
\*---------------------------------------------------------------------------*/
FoamFile
{
    version     2.0;
    format      ascii;
    class       volScalarField;
    object      p;
}
// * * * * * * * * * * * * * * * * * * * * * * * * * * * * * * * * * * * * * //

dimensions      [0 2 -2 0 0 0 0];

internalField   uniform 0;

boundaryField
{
    bottomWall
    {
        type            zeroGradient;
    }

    topWall
    {
        type            zeroGradient;
    }

    sides1
    {
        type            cyclic;
    }

    sides2
    {
        type            cyclic;
    }

    inout1
    {
        type            cyclic;
    }

    inout2
    {
        type            cyclic;
    }
}

// ************************************************************************* //
