/*--------------------------------*- C++ -*----------------------------------*\
| =========                 |                                                 |
| \\      /  F ield         | foam-extend: Open Source CFD                    |
|  \\    /   O peration     | Version:     5.0                                |
|   \\  /    A nd           | Web:         http://www.foam-extend.org         |
|    \\/     M anipulation  | For copyright notice see file Copyright         |
\*---------------------------------------------------------------------------*/
FoamFile
{
    version     2.0;
    format      ascii;
    class       polyBoundaryMesh;
    location    "constant/polyMesh";
    object      boundary;
}
// * * * * * * * * * * * * * * * * * * * * * * * * * * * * * * * * * * * * * //

4
(
    inlet
    {
        type            patch;
        nFaces          25;
        startFace       3650;
    }
    outlet
    {
        type            patch;
        nFaces          25;
        startFace       3675;
    }
    walls
    {
        type            wall;
        nFaces          150;
        startFace       3700;
    }
    defaultFaces
    {
        type            empty;
        nFaces          3750;
        startFace       3850;
    }
)

// ************************************************************************* //
