/*--------------------------------*- C++ -*----------------------------------*\
| =========                 |                                                 |
| \\      /  F ield         | foam-extend: Open Source CFD                    |
|  \\    /   O peration     | Version:     5.0                                |
|   \\  /    A nd           | Web:         http://www.foam-extend.org         |
|    \\/     M anipulation  | For copyright notice see file Copyright         |
\*---------------------------------------------------------------------------*/
FoamFile
{
    version     2.0;
    format      ascii;
    class       dictionary;
    object      fvSolution;
}
// * * * * * * * * * * * * * * * * * * * * * * * * * * * * * * * * * * * * * //

solvers
{
    "(p|pFinal)" //Unstable to change settings for final - iterate more instead
    {
        solver          PCG;
        preconditioner  DIC;
        tolerance       1e-07;
        relTol          0.01;
    }
    U
    {
        solver          BiCGStab;
        preconditioner  DILU;
        tolerance       1e-06;
        relTol          0.1;
    }
    UFinal
    {
        $U;
        relTol          0;
    }
    "(k|epsilon)"
    {
        solver          BiCGStab;
        preconditioner  DILU;
        tolerance       1e-06;
        relTol          0.1;
    }

}

PIMPLE
{
    nOuterCorrectors    4;
    nCorrectors         2;
    nNonOrthogonalCorrectors 0;
}

relaxationFactors
{
    equations
    {
        U               0.7;
        UFinal          0.7; // To avoid sudden increase in pressure residual
        k               0.7;
        epsilon         0.7;
    }
    fields
    {
        p               0.3;
    }
}

fieldBounds
{
    p -1e5 1e5;
    U 100;
}

// ************************************************************************* //
