/*--------------------------------*- C++ -*----------------------------------*\
| =========                 |                                                 |
| \\      /  F ield         | foam-extend: Open Source CFD                    |
|  \\    /   O peration     | Version:     5.0                                |
|   \\  /    A nd           | Web:         http://www.foam-extend.org         |
|    \\/     M anipulation  | For copyright notice see file Copyright         |
\*---------------------------------------------------------------------------*/
FoamFile
{
    version     2.0;
    format      ascii;
    class       polyBoundaryMesh;
    location    "constant/polyMesh";
    object      boundary;
}
// * * * * * * * * * * * * * * * * * * * * * * * * * * * * * * * * * * * * * //

6
(
    top
    {
        type            patch;
        nFaces          100;
        startFace       2700;
    }
    left
    {
        type            symmetryPlane;
        nFaces          100;
        startFace       2800;
    }
    right
    {
        type            patch;
        nFaces          100;
        startFace       2900;
    }
    bottom
    {
        type            symmetryPlane;
        nFaces          100;
        startFace       3000;
    }
    front
    {
        type            patch;
        nFaces          100;
        startFace       3100;
    }
    back
    {
        type            symmetryPlane;
        nFaces          100;
        startFace       3200;
    }
)

// ************************************************************************* //
