/*--------------------------------*- C++ -*----------------------------------*\
| =========                 |                                                 |
| \\      /  F ield         | foam-extend: Open Source CFD                    |
|  \\    /   O peration     | Version:     5.0                                |
|   \\  /    A nd           | Web:         http://www.foam-extend.org         |
|    \\/     M anipulation  | For copyright notice see file Copyright         |
\*---------------------------------------------------------------------------*/
FoamFile
{
    version     2.0;
    format      ascii;
    class       dictionary;
    location    "constant";
    object      cohesiveProperties;
}
// * * * * * * * * * * * * * * * * * * * * * * * * * * * * * * * * * * * * * //

cohesive
{
  type            dugdale;
  sigmaMax        sigmaMax [1 -1 -2 0 0 0 0] 1e6;
  tauMax          tauMax [1 -1 -2 0 0 0 0] 1e6;
  GIc             GIc [1 0 -2 0 0 0 0] 10;
  GIIc            GIIc [1 0 -2 0 0 0 0] 10;
}

// ************************************************************************* //
