/*--------------------------------*- C++ -*----------------------------------*\
| =========                 |                                                 |
| \\      /  F ield         | foam-extend: Open Source CFD                    |
|  \\    /   O peration     | Version:     5.0                                |
|   \\  /    A nd           | Web:         http://www.foam-extend.org         |
|    \\/     M anipulation  | For copyright notice see file Copyright         |
\*---------------------------------------------------------------------------*/
FoamFile
{
    version     2.0;
    format      ascii;
    class       dictionary;
    object      dynamicMeshDict;
}
// * * * * * * * * * * * * * * * * * * * * * * * * * * * * * * * * * * * * * //

// dynamicFvMesh   staticFvMesh;
dynamicFvMesh   immersedBoundarySolidBodyMotionFvMesh;

immersedBoundarySolidBodyMotionFvMeshCoeffs
{
    // Immersed boundary controls
    motionFunctions
    (
        ibCylinder
        {
            solidBodyMotionFunction     linearOscillation;
            linearOscillationCoeffs
            {
                amplitude    (0.5 0 0);
                period       2.5;
            }
        }
    );
}

// ************************************************************************* //
