/*--------------------------------*- C++ -*----------------------------------*\
| =========                 |                                                 |
| \\      /  F ield         | foam-extend: Open Source CFD                    |
|  \\    /   O peration     | Version:     5.0                                |
|   \\  /    A nd           | Web:         http://www.foam-extend.org         |
|    \\/     M anipulation  | For copyright notice see file Copyright         |
\*---------------------------------------------------------------------------*/
FoamFile
{
    version     2.0;
    format      ascii;
    class       dictionary;
    object      oversetMeshDict;
}
// * * * * * * * * * * * * * * * * * * * * * * * * * * * * * * * * * * * * * //

interpolation
{
    interpolationSchemes (injection);

    default injection;
}

holePatches  ( cylinder );

regions
(
    background
    {
        donorRegions ( front );

        fringe
        {
            type overlap;

            suitablePairFraction 0.5;
            cacheFringe          no;

            donorSuitability
            {
                type      cellVolumes;
                threshold 0.2;
            }
        }
    }

    front
    {
        donorRegions ( background );

        fringe
        {
            type faceCells;
            patches ( outerCylinder );
        }
    }
);

// ************************************************************************* //
