/*--------------------------------*- C++ -*----------------------------------*\
| =========                 |                                                 |
| \\      /  F ield         | foam-extend: Open Source CFD                    |
|  \\    /   O peration     | Version:     5.0                                |
|   \\  /    A nd           | Web:         http://www.foam-extend.org         |
|    \\/     M anipulation  | For copyright notice see file Copyright         |
\*---------------------------------------------------------------------------*/
FoamFile
{
    version     2.0;
    format      ascii;
    class       volScalarField;
    object      k;
}
// * * * * * * * * * * * * * * * * * * * * * * * * * * * * * * * * * * * * * //

dimensions      [0 2 -2 0 0 0 0];

internalField   uniform 1;

boundaryField
{
    lowerWall
    {
        type            fixedValue;
        value           uniform 1e-10;
    }

    upperWall
    {
        type            fixedValue;
        value           uniform 1e-10;
    }

    frontBack
    {
        type            cyclic;
    }

    defaultFaces
    {
        type            empty;
    }
}

// ************************************************************************* //
