/*--------------------------------*- C++ -*----------------------------------*\
| =========                 |                                                 |
| \\      /  F ield         | foam-extend: Open Source CFD                    |
|  \\    /   O peration     | Version:     5.0                                |
|   \\  /    A nd           | Web:         http://www.foam-extend.org         |
|    \\/     M anipulation  | For copyright notice see file Copyright         |
\*---------------------------------------------------------------------------*/
FoamFile
{
    version     2.0;
    format      ascii;
    class       dictionary;
    location    "system";
    object      constrolDict;
}
// * * * * * * * * * * * * * * * * * * * * * * * * * * * * * * * * * * * * * //

application	;

deltaT	0.05;

endTime	10;

graphFormat	raw;

purgeWrite	0;

runTimeModifiable	yes;

startFrom	latestTime;

startTime	0;

stopAt	endTime;

timeFormat	general;

timePrecision	6;

writeCompression	uncompressed;

writeControl	timeStep;

writeFormat	ascii;

writeInterval	20;

writePrecision	6;

// ************************************************************************* //