/*--------------------------------*- C++ -*----------------------------------*\
| =========                 |                                                 |
| \\      /  F ield         | foam-extend: Open Source CFD                    |
|  \\    /   O peration     | Version:     5.0                                |
|   \\  /    A nd           | Web:         http://www.foam-extend.org         |
|    \\/     M anipulation  | For copyright notice see file Copyright         |
\*---------------------------------------------------------------------------*/
FoamFile
{
    version     2.0;
    format      ascii;
    class       dictionary;
    location    "system";
    object      fvSchemes;
}
// * * * * * * * * * * * * * * * * * * * * * * * * * * * * * * * * * * * * * //

ddtSchemes
{
    default Euler;
}

divSchemes
{
    default Gauss linear;
    div(phi,U)  Gauss limitedLinearV 1;
}

gradSchemes
{
    default Gauss linear;
    grad(U) Gauss linear;
    grad(p) Gauss linear;
}

interpolationSchemes
{
    default linear;
    interpolate(HbyA)   linear;
    interpolate(U)  linear;
    interpolate(p)  linear;
}

laplacianSchemes
{
    default Gauss linear corrected;
    laplacian(1|A(U),p) Gauss linear corrected;
    laplacian(nu,U) Gauss linear corrected;
}

snGradSchemes
{
    default corrected;
    sngrad(U)   corrected;
    sngrad(p)   corrected;
}

// ************************************************************************* //
