/*--------------------------------*- C++ -*----------------------------------*\
| =========                 |                                                 |
| \\      /  F ield         | foam-extend: Open Source CFD                    |
|  \\    /   O peration     | Version:     5.0                                |
|   \\  /    A nd           | Web:         http://www.foam-extend.org         |
|    \\/     M anipulation  | For copyright notice see file Copyright         |
\*---------------------------------------------------------------------------*/
FoamFile
{
    version     2.0;
    format      ascii;
    class       dictionary;
    location    "system";
    object      fvSolution;
}
// * * * * * * * * * * * * * * * * * * * * * * * * * * * * * * * * * * * * * //

PISO
{
    nCorrectors 2;
    nNonOrthogonalCorrectors    2;
    pRefCell    0;
    pRefValue   0;
}

solvers
{
    U
    {
        maxIter 1000;
        preconditioner  DILU;
        relTol  0;
        solver  PBiCG;
        tolerance   1e-06;
    }

    p
    {
        maxIter 1000;
        preconditioner  DIC;
        relTol  0;
        solver  PCG;
        tolerance   1e-06;
    }
}

// ************************************************************************* //