/*--------------------------------*- C++ -*----------------------------------*\
| =========                 |                                                 |
| \\      /  F ield         | foam-extend: Open Source CFD                    |
|  \\    /   O peration     | Version:     5.0                                |
|   \\  /    A nd           | Web:         http://www.foam-extend.org         |
|    \\/     M anipulation  | For copyright notice see file Copyright         |
\*---------------------------------------------------------------------------*/
FoamFile
{
    version     2.0;
    format      ascii;
    class       dictionary;
    location    "constant";
    object      dynamicMeshDict;
}
// * * * * * * * * * * * * * * * * * * * * * * * * * * * * * * * * * * * * * //

dynamicFvMeshLib "libtopoChangerFvMesh.so";

dynamicFvMesh   mixerFvMesh;

mixerFvMeshCoeffs
{
    coordinateSystem
    {
        type            cylindrical;
        origin          ( 0 0 0 );
        axis            ( 0 0 1 );
        direction       ( 1 0 0 );
    }

    rpm             10;

    slider
    {
        inside          insideSlider;
        outside         outsideSlider;
    }
}

// ************************************************************************* //
