/*--------------------------------*- C++ -*----------------------------------*\
| =========                 |                                                 |
| \\      /  F ield         | foam-extend: Open Source CFD                    |
|  \\    /   O peration     | Version:     5.0                                |
|   \\  /    A nd           | Web:         http://www.foam-extend.org         |
|    \\/     M anipulation  | For copyright notice see file Copyright         |
\*---------------------------------------------------------------------------*/
FoamFile
{
    version     2.0;
    format      ascii;
    class       dictionary;
    location    "system";
    object      meshDict;
}
// ************************************************************************* //

applicationClass    ;

startFrom           latestTime;

startTime           0;

stopAt              endTime;

endTime             500;

deltaT              1;

writeControl        timeStep;

writeInterval       100;

cycleWrite          0;

writeFormat         binary;

writeCompression    compressed;

timeFormat          general;

timePrecision       6;

runTimeModifiable   yes;

nCorrectors         2;

nNonOrthogonalCorrectors 0;

// ************************************************************************* //
