/*--------------------------------*- C++ -*----------------------------------*\
| =========                 |                                                 |
| \\      /  F ield         | foam-extend: Open Source CFD                    |
|  \\    /   O peration     | Version:     5.0                                |
|   \\  /    A nd           | Web:         http://www.foam-extend.org         |
|    \\/     M anipulation  | For copyright notice see file Copyright         |
\*---------------------------------------------------------------------------*/
FoamFile
{
    version     2.0;
    format      ascii;
    class       dictionary;
    object      fvSchemes;
}
// * * * * * * * * * * * * * * * * * * * * * * * * * * * * * * * * * * * * * //

ddtSchemes
{
    default         steadyState;
}
gradSchemes
{
    default         cellLimited Gauss linear 1;
}
divSchemes
{
    default          none;
    div(phi,U)       Gauss upwind;
    div(phi,i)       Gauss upwind;
    div(phid,p)      Gauss upwind;

//     div(phi,U)       Gauss vanLeerDC;
//     div(phi,h)       Gauss vanLeerDC;
//     div(phid,p)      Gauss vanLeerDC;

    div(phi,k)       Gauss upwind;
    div(phi,epsilon) Gauss upwind;
    div((muEff*dev2(T(grad(U))))) Gauss linear;

    div(U,p)       Gauss linear;
}
laplacianSchemes
{
    default         Gauss linear corrected;
}
interpolationSchemes
{
    default         linear;
}
snGradSchemes
{
    default         corrected;
}

// ************************************************************************* //
