/*--------------------------------*- C++ -*----------------------------------*\
| =========                 |                                                 |
| \\      /  F ield         | foam-extend: Open Source CFD                    |
|  \\    /   O peration     | Version:     5.0                                |
|   \\  /    A nd           | Web:         http://www.foam-extend.org         |
|    \\/     M anipulation  | For copyright notice see file Copyright         |
\*---------------------------------------------------------------------------*/
FoamFile
{
    version     2.0;
    format      ascii;
    class       dictionary;
    location    "system";
    object      fvSolution;
}
// * * * * * * * * * * * * * * * * * * * * * * * * * * * * * * * * * * * * * //

solvers
{
    p_rgh
    {
        solver          CG;
        preconditioner  Cholesky;
        tolerance       1e-08;
        relTol          0.0;
    }
    U
    {
        solver          BiCGStab;
        preconditioner  DILU;
        tolerance       1e-08;
        relTol          0;
    }
    T
    {
        solver          BiCGStab;
        preconditioner  DILU;
        tolerance       1e-08;
        relTol          0;
    }
    k
    {
        solver          BiCGStab;
        preconditioner  DILU;
        tolerance       1e-08;
        relTol          0;
    }
    epsilon
    {
        solver          BiCGStab;
        preconditioner  DILU;
        tolerance       1e-08;
        relTol          0;
    }
}

SIMPLE
{
    nNonOrthogonalCorrectors 0;
    p_rghRefCell        0;
    p_rghRefValue       0;
}

relaxationFactors
{
    equations
    {
        rho             1;
        U               0.2;
        T               0.7;
        k               0.7;
        epsilon         0.7;
    }
    fields
    {
        p_rgh           0.3;
    }
}

// ************************************************************************* //
