/*--------------------------------*- C++ -*----------------------------------*\
| =========                 |                                                 |
| \\      /  F ield         | foam-extend: Open Source CFD                    |
|  \\    /   O peration     | Version:     5.0                                |
|   \\  /    A nd           | Web:         http://www.foam-extend.org         |
|    \\/     M anipulation  | For copyright notice see file Copyright         |
\*---------------------------------------------------------------------------*/
FoamFile
{
    version     2.0;
    format      ascii;
    class       dictionary;
    object      bodyA;
}
// * * * * * * * * * * * * * * * * * * * * * * * * * * * * * * * * * * * * * //

// Mass properties and inputs common to all sixDOFODE's
mass m [ 1 0 0 0 0 0 0 ] 0.25;

momentOfInertia J [ 1 2 0 0 0 0 0 ] (1.3e-4 1.3e-4 2.5e-4);

equilibriumPosition x [ 0 1 0 0 0 0 0 ] (0 0 0);

force f [ 1 1 -2 0 0 0 0 ] (0 0 0) ;

moment m [ 1 2 -2 0 0 0 0 ] (0 0 0) ;

// Specific input for certain sixDOFODE
type geometricSixDOF;

// Xabs = Xeq + Xrel
Xrel                Xrel        [0 1 0 0 0 0 0]      (0 0 0);
U                   U           [0 1 -1 0 0 0 0]     (0 0 0);
Uold                Uold        [0 1 -1 0 0 0 0]     (0 0 0);

// Rotate around z
// rotationTensor                  (1 0 0 0 1 0 0 0 1);
// omega            rotUrel        [0 0 -1 0 0 0 0]      (0 0 1);

// Test rotation
rotationTensor (0.9396926207859084 0.3420201433256687 0 0 1 0 -0.3420201433256687 0 0.9396926207859084);

omega rotUrel [0 0 -1 0 0 0 0] (0.3420201433256687 0 0.9396926207859084);
// omega rotUrel [0 0 -1 0 0 0 0] (0 0 10);

// ************************************************************************* //
