/*--------------------------------*- C++ -*----------------------------------*\
| =========                 |                                                 |
| \\      /  F ield         | foam-extend: Open Source CFD                    |
|  \\    /   O peration     | Version:     5.0                                |
|   \\  /    A nd           | Web:         http://www.foam-extend.org         |
|    \\/     M anipulation  | For copyright notice see file Copyright         |
\*---------------------------------------------------------------------------*/
FoamFile
{
    version     2.0;
    format      ascii;
    class       dictionary;
    location    "system";
    object      meshDict;
}
// * * * * * * * * * * * * * * * * * * * * * * * * * * * * * * * * * * * * * //

surfaceFile "geom.stl";

maxCellSize 0.2;

boundaryCellSize 0.1;

localRefinement
{
    defaultFaces0006
    {
        cellSize 0.01;
    }
    defaultFaces0007
    {
        cellSize 0.005;
    }
    defaultFaces0009
    {
        cellSize 0.005;
    }
}

// ************************************************************************* //
