/*--------------------------------*- C++ -*----------------------------------*\
| =========                 |                                                 |
| \\      /  F ield         | foam-extend: Open Source CFD                    |
|  \\    /   O peration     | Version:     5.1                                |
|   \\  /    A nd           | Web:         http://www.foam-extend.org         |
|    \\/     M anipulation  |                                                 |
\*---------------------------------------------------------------------------*/
FoamFile
{
    version     2.0;
    format      ascii;
    class       polyBoundaryMesh;
    location    "constant/polyMesh";
    object      boundary;
}
// * * * * * * * * * * * * * * * * * * * * * * * * * * * * * * * * * * * * * //

4
(
    inlet
    {
        type            patch;
        nFaces          30;
        startFace       7050;
    }
    outlet
    {
        type            patch;
        nFaces          30;
        startFace       7080;
    }
    outer
    {
        type            patch;
        nFaces          240;
        startFace       7110;
    }
    frontAndBack
    {
        type            empty;
        nFaces          7200;
        startFace       7350;
    }
)


// ************************************************************************* //
