/*--------------------------------*- C++ -*----------------------------------*\
| =========                 |                                                 |
| \\      /  F ield         | foam-extend: Open Source CFD                    |
|  \\    /   O peration     | Version:     5.0                                |
|   \\  /    A nd           | Web:         http://www.foam-extend.org         |
|    \\/     M anipulation  | For copyright notice see file Copyright         |
\*---------------------------------------------------------------------------*/
FoamFile
{
    version     2.0;
    format      ascii;
    class       volScalarField;
    object      T;
}
dimensions      [0 0 0 1 0 0 0];

internalField uniform 100;

boundaryField
{
    inlet
    {
        type            fixedValue;
        value           uniform 500;
    }
    outlet
    {
        type            fixedValue;
        value           uniform 100;
    }
    wallProlongation
    {
        type zeroGradient;
    }
    wallDiffuser
    {
        type zeroGradient;
    }
    statSwirlWallB_C
    {
        type zeroGradient;
    }
    rotSwirlWallA_BB
    {
        type zeroGradient;
    }
    B_UPSTREAM
    {
        type mixingPlane;
    }
    B_DOWNSTREAM
    {
        type mixingPlane;
    }
    sideWallA_BB_cyclic1
    {
        type cyclicGgi;
    }
    sideWallA_BB_cyclic2
    {
        type cyclicGgi;
    }
    defaultFaces
    {
        type empty;
    }
}

// ************************************************************************* //

