/*--------------------------------*- C++ -*----------------------------------*\
| =========                 |                                                 |
| \\      /  F ield         | foam-extend: Open Source CFD                    |
|  \\    /   O peration     | Version:     5.0                                |
|   \\  /    A nd           | Web:         http://www.foam-extend.org         |
|    \\/     M anipulation  | For copyright notice see file Copyright         |
\*---------------------------------------------------------------------------*/
FoamFile
{
    version     2.0;
    format      ascii;
    class       dictionary;
    object      fvSolution;
}
// * * * * * * * * * * * * * * * * * * * * * * * * * * * * * * * * * * * * * //

solvers
{
    p
    {
        solver           CG;
        preconditioner   Cholesky;

        minIter          0;
        maxIter          1000;
        tolerance        1e-07;
        relTol           0.0;
    }
    U
    {
        solver            BiCGStab;
        preconditioner    DILU;

        minIter          0;
        maxIter          1000;
        tolerance        1e-07;
        relTol           0;
    }
}

SIMPLE
{
    nNonOrthogonalCorrectors 0;
    pRefCell        0;
    pRefValue       0;
}

relaxationFactors
{
    fields
    {
        p 0.3;
    }
    equations
    {
        U 0.7;
    }
}

// ************************************************************************* //
