/*--------------------------------*- C++ -*----------------------------------*\
| =========                 |                                                 |
| \\      /  F ield         | foam-extend: Open Source CFD                    |
|  \\    /   O peration     | Version:     5.0                                |
|   \\  /    A nd           | Web:         http://www.foam-extend.org         |
|    \\/     M anipulation  | For copyright notice see file Copyright         |
\*---------------------------------------------------------------------------*/
FoamFile
{
    version     2.0;
    format      ascii;
    class       dictionary;
    object      faceSetDict;
}
// * * * * * * * * * * * * * * * * * * * * * * * * * * * * * * * * * * * * * //

// Name of set to operate on
name rotor;

// One of clear/new/invert/add/delete|subset/list
action delete;

// Actions to apply to pointSet. These are all the topoSetSource's ending
// in ..ToFace (see the meshTools library).
topoSetSources
(
    // Select boundary faces
    boundaryToFace
    {
    }
);

// ************************************************************************* //
