/*--------------------------------*- C++ -*----------------------------------*\
| =========                 |                                                 |
| \\      /  F ield         | OpenFOAM: The Open Source CFD Toolbox           |
|  \\    /   O peration     | Version:  v2106                                 |
|   \\  /    A nd           | Website:  www.openfoam.com                      |
|    \\/     M anipulation  |                                                 |
\*---------------------------------------------------------------------------*/
FoamFile
{
    version     2.0;
    format      ascii;
    arch        "LSB;label=32;scalar=64";
    class       volScalarField;
    location    "constant";
    object      gh;
}
// * * * * * * * * * * * * * * * * * * * * * * * * * * * * * * * * * * * * * //

dimensions      [0 2 -2 0 0 0 0];

internalField   nonuniform List<scalar> 
4000
(
-245.25
-245.25
-245.25
-245.25
-245.25
-245.25
-245.25
-245.25
-245.25
-245.25
-245.25
-245.25
-245.25
-245.25
-245.25
-245.25
-245.25
-245.25
-245.25
-245.25
-735.75
-735.75
-735.75
-735.75
-735.75
-735.75
-735.75
-735.75
-735.75
-735.75
-735.75
-735.75
-735.75
-735.75
-735.75
-735.75
-735.75
-735.75
-735.75
-735.75
-1226.25
-1226.25
-1226.25
-1226.25
-1226.25
-1226.25
-1226.25
-1226.25
-1226.25
-1226.25
-1226.25
-1226.25
-1226.25
-1226.25
-1226.25
-1226.25
-1226.25
-1226.25
-1226.25
-1226.25
-1716.75
-1716.75
-1716.75
-1716.75
-1716.75
-1716.75
-1716.75
-1716.75
-1716.75
-1716.75
-1716.75
-1716.75
-1716.75
-1716.75
-1716.75
-1716.75
-1716.75
-1716.75
-1716.75
-1716.75
-2207.25
-2207.25
-2207.25
-2207.25
-2207.25
-2207.25
-2207.25
-2207.25
-2207.25
-2207.25
-2207.25
-2207.25
-2207.25
-2207.25
-2207.25
-2207.25
-2207.25
-2207.25
-2207.25
-2207.25
-2697.75
-2697.75
-2697.75
-2697.75
-2697.75
-2697.75
-2697.75
-2697.75
-2697.75
-2697.75
-2697.75
-2697.75
-2697.75
-2697.75
-2697.75
-2697.75
-2697.75
-2697.75
-2697.75
-2697.75
-3188.25
-3188.25
-3188.25
-3188.25
-3188.25
-3188.25
-3188.25
-3188.25
-3188.25
-3188.25
-3188.25
-3188.25
-3188.25
-3188.25
-3188.25
-3188.25
-3188.25
-3188.25
-3188.25
-3188.25
-3678.75
-3678.75
-3678.75
-3678.75
-3678.75
-3678.75
-3678.75
-3678.75
-3678.75
-3678.75
-3678.75
-3678.75
-3678.75
-3678.75
-3678.75
-3678.75
-3678.75
-3678.75
-3678.75
-3678.75
-4169.25
-4169.25
-4169.25
-4169.25
-4169.25
-4169.25
-4169.25
-4169.25
-4169.25
-4169.25
-4169.25
-4169.25
-4169.25
-4169.25
-4169.25
-4169.25
-4169.25
-4169.25
-4169.25
-4169.25
-4659.75
-4659.75
-4659.75
-4659.75
-4659.75
-4659.75
-4659.75
-4659.75
-4659.75
-4659.75
-4659.75
-4659.75
-4659.75
-4659.75
-4659.75
-4659.75
-4659.75
-4659.75
-4659.75
-4659.75
-245.25
-245.25
-245.25
-245.25
-245.25
-245.25
-245.25
-245.25
-245.25
-245.25
-245.25
-245.25
-245.25
-245.25
-245.25
-245.25
-245.25
-245.25
-245.25
-245.25
-735.75
-735.75
-735.75
-735.75
-735.75
-735.75
-735.75
-735.75
-735.75
-735.75
-735.75
-735.75
-735.75
-735.75
-735.75
-735.75
-735.75
-735.75
-735.75
-735.75
-1226.25
-1226.25
-1226.25
-1226.25
-1226.25
-1226.25
-1226.25
-1226.25
-1226.25
-1226.25
-1226.25
-1226.25
-1226.25
-1226.25
-1226.25
-1226.25
-1226.25
-1226.25
-1226.25
-1226.25
-1716.75
-1716.75
-1716.75
-1716.75
-1716.75
-1716.75
-1716.75
-1716.75
-1716.75
-1716.75
-1716.75
-1716.75
-1716.75
-1716.75
-1716.75
-1716.75
-1716.75
-1716.75
-1716.75
-1716.75
-2207.25
-2207.25
-2207.25
-2207.25
-2207.25
-2207.25
-2207.25
-2207.25
-2207.25
-2207.25
-2207.25
-2207.25
-2207.25
-2207.25
-2207.25
-2207.25
-2207.25
-2207.25
-2207.25
-2207.25
-2697.75
-2697.75
-2697.75
-2697.75
-2697.75
-2697.75
-2697.75
-2697.75
-2697.75
-2697.75
-2697.75
-2697.75
-2697.75
-2697.75
-2697.75
-2697.75
-2697.75
-2697.75
-2697.75
-2697.75
-3188.25
-3188.25
-3188.25
-3188.25
-3188.25
-3188.25
-3188.25
-3188.25
-3188.25
-3188.25
-3188.25
-3188.25
-3188.25
-3188.25
-3188.25
-3188.25
-3188.25
-3188.25
-3188.25
-3188.25
-3678.75
-3678.75
-3678.75
-3678.75
-3678.75
-3678.75
-3678.75
-3678.75
-3678.75
-3678.75
-3678.75
-3678.75
-3678.75
-3678.75
-3678.75
-3678.75
-3678.75
-3678.75
-3678.75
-3678.75
-4169.25
-4169.25
-4169.25
-4169.25
-4169.25
-4169.25
-4169.25
-4169.25
-4169.25
-4169.25
-4169.25
-4169.25
-4169.25
-4169.25
-4169.25
-4169.25
-4169.25
-4169.25
-4169.25
-4169.25
-4659.75
-4659.75
-4659.75
-4659.75
-4659.75
-4659.75
-4659.75
-4659.75
-4659.75
-4659.75
-4659.75
-4659.75
-4659.75
-4659.75
-4659.75
-4659.75
-4659.75
-4659.75
-4659.75
-4659.75
-245.25
-245.25
-245.25
-245.25
-245.25
-245.25
-245.25
-245.25
-245.25
-245.25
-245.25
-245.25
-245.25
-245.25
-245.25
-245.25
-245.25
-245.25
-245.25
-245.25
-735.75
-735.75
-735.75
-735.75
-735.75
-735.75
-735.75
-735.75
-735.75
-735.75
-735.75
-735.75
-735.75
-735.75
-735.75
-735.75
-735.75
-735.75
-735.75
-735.75
-1226.25
-1226.25
-1226.25
-1226.25
-1226.25
-1226.25
-1226.25
-1226.25
-1226.25
-1226.25
-1226.25
-1226.25
-1226.25
-1226.25
-1226.25
-1226.25
-1226.25
-1226.25
-1226.25
-1226.25
-1716.75
-1716.75
-1716.75
-1716.75
-1716.75
-1716.75
-1716.75
-1716.75
-1716.75
-1716.75
-1716.75
-1716.75
-1716.75
-1716.75
-1716.75
-1716.75
-1716.75
-1716.75
-1716.75
-1716.75
-2207.25
-2207.25
-2207.25
-2207.25
-2207.25
-2207.25
-2207.25
-2207.25
-2207.25
-2207.25
-2207.25
-2207.25
-2207.25
-2207.25
-2207.25
-2207.25
-2207.25
-2207.25
-2207.25
-2207.25
-2697.75
-2697.75
-2697.75
-2697.75
-2697.75
-2697.75
-2697.75
-2697.75
-2697.75
-2697.75
-2697.75
-2697.75
-2697.75
-2697.75
-2697.75
-2697.75
-2697.75
-2697.75
-2697.75
-2697.75
-3188.25
-3188.25
-3188.25
-3188.25
-3188.25
-3188.25
-3188.25
-3188.25
-3188.25
-3188.25
-3188.25
-3188.25
-3188.25
-3188.25
-3188.25
-3188.25
-3188.25
-3188.25
-3188.25
-3188.25
-3678.75
-3678.75
-3678.75
-3678.75
-3678.75
-3678.75
-3678.75
-3678.75
-3678.75
-3678.75
-3678.75
-3678.75
-3678.75
-3678.75
-3678.75
-3678.75
-3678.75
-3678.75
-3678.75
-3678.75
-4169.25
-4169.25
-4169.25
-4169.25
-4169.25
-4169.25
-4169.25
-4169.25
-4169.25
-4169.25
-4169.25
-4169.25
-4169.25
-4169.25
-4169.25
-4169.25
-4169.25
-4169.25
-4169.25
-4169.25
-4659.75
-4659.75
-4659.75
-4659.75
-4659.75
-4659.75
-4659.75
-4659.75
-4659.75
-4659.75
-4659.75
-4659.75
-4659.75
-4659.75
-4659.75
-4659.75
-4659.75
-4659.75
-4659.75
-4659.75
-245.25
-245.25
-245.25
-245.25
-245.25
-245.25
-245.25
-245.25
-245.25
-245.25
-245.25
-245.25
-245.25
-245.25
-245.25
-245.25
-245.25
-245.25
-245.25
-245.25
-735.75
-735.75
-735.75
-735.75
-735.75
-735.75
-735.75
-735.75
-735.75
-735.75
-735.75
-735.75
-735.75
-735.75
-735.75
-735.75
-735.75
-735.75
-735.75
-735.75
-1226.25
-1226.25
-1226.25
-1226.25
-1226.25
-1226.25
-1226.25
-1226.25
-1226.25
-1226.25
-1226.25
-1226.25
-1226.25
-1226.25
-1226.25
-1226.25
-1226.25
-1226.25
-1226.25
-1226.25
-1716.75
-1716.75
-1716.75
-1716.75
-1716.75
-1716.75
-1716.75
-1716.75
-1716.75
-1716.75
-1716.75
-1716.75
-1716.75
-1716.75
-1716.75
-1716.75
-1716.75
-1716.75
-1716.75
-1716.75
-2207.25
-2207.25
-2207.25
-2207.25
-2207.25
-2207.25
-2207.25
-2207.25
-2207.25
-2207.25
-2207.25
-2207.25
-2207.25
-2207.25
-2207.25
-2207.25
-2207.25
-2207.25
-2207.25
-2207.25
-2697.75
-2697.75
-2697.75
-2697.75
-2697.75
-2697.75
-2697.75
-2697.75
-2697.75
-2697.75
-2697.75
-2697.75
-2697.75
-2697.75
-2697.75
-2697.75
-2697.75
-2697.75
-2697.75
-2697.75
-3188.25
-3188.25
-3188.25
-3188.25
-3188.25
-3188.25
-3188.25
-3188.25
-3188.25
-3188.25
-3188.25
-3188.25
-3188.25
-3188.25
-3188.25
-3188.25
-3188.25
-3188.25
-3188.25
-3188.25
-3678.75
-3678.75
-3678.75
-3678.75
-3678.75
-3678.75
-3678.75
-3678.75
-3678.75
-3678.75
-3678.75
-3678.75
-3678.75
-3678.75
-3678.75
-3678.75
-3678.75
-3678.75
-3678.75
-3678.75
-4169.25
-4169.25
-4169.25
-4169.25
-4169.25
-4169.25
-4169.25
-4169.25
-4169.25
-4169.25
-4169.25
-4169.25
-4169.25
-4169.25
-4169.25
-4169.25
-4169.25
-4169.25
-4169.25
-4169.25
-4659.75
-4659.75
-4659.75
-4659.75
-4659.75
-4659.75
-4659.75
-4659.75
-4659.75
-4659.75
-4659.75
-4659.75
-4659.75
-4659.75
-4659.75
-4659.75
-4659.75
-4659.75
-4659.75
-4659.75
-245.25
-245.25
-245.25
-245.25
-245.25
-245.25
-245.25
-245.25
-245.25
-245.25
-245.25
-245.25
-245.25
-245.25
-245.25
-245.25
-245.25
-245.25
-245.25
-245.25
-735.75
-735.75
-735.75
-735.75
-735.75
-735.75
-735.75
-735.75
-735.75
-735.75
-735.75
-735.75
-735.75
-735.75
-735.75
-735.75
-735.75
-735.75
-735.75
-735.75
-1226.25
-1226.25
-1226.25
-1226.25
-1226.25
-1226.25
-1226.25
-1226.25
-1226.25
-1226.25
-1226.25
-1226.25
-1226.25
-1226.25
-1226.25
-1226.25
-1226.25
-1226.25
-1226.25
-1226.25
-1716.75
-1716.75
-1716.75
-1716.75
-1716.75
-1716.75
-1716.75
-1716.75
-1716.75
-1716.75
-1716.75
-1716.75
-1716.75
-1716.75
-1716.75
-1716.75
-1716.75
-1716.75
-1716.75
-1716.75
-2207.25
-2207.25
-2207.25
-2207.25
-2207.25
-2207.25
-2207.25
-2207.25
-2207.25
-2207.25
-2207.25
-2207.25
-2207.25
-2207.25
-2207.25
-2207.25
-2207.25
-2207.25
-2207.25
-2207.25
-2697.75
-2697.75
-2697.75
-2697.75
-2697.75
-2697.75
-2697.75
-2697.75
-2697.75
-2697.75
-2697.75
-2697.75
-2697.75
-2697.75
-2697.75
-2697.75
-2697.75
-2697.75
-2697.75
-2697.75
-3188.25
-3188.25
-3188.25
-3188.25
-3188.25
-3188.25
-3188.25
-3188.25
-3188.25
-3188.25
-3188.25
-3188.25
-3188.25
-3188.25
-3188.25
-3188.25
-3188.25
-3188.25
-3188.25
-3188.25
-3678.75
-3678.75
-3678.75
-3678.75
-3678.75
-3678.75
-3678.75
-3678.75
-3678.75
-3678.75
-3678.75
-3678.75
-3678.75
-3678.75
-3678.75
-3678.75
-3678.75
-3678.75
-3678.75
-3678.75
-4169.25
-4169.25
-4169.25
-4169.25
-4169.25
-4169.25
-4169.25
-4169.25
-4169.25
-4169.25
-4169.25
-4169.25
-4169.25
-4169.25
-4169.25
-4169.25
-4169.25
-4169.25
-4169.25
-4169.25
-4659.75
-4659.75
-4659.75
-4659.75
-4659.75
-4659.75
-4659.75
-4659.75
-4659.75
-4659.75
-4659.75
-4659.75
-4659.75
-4659.75
-4659.75
-4659.75
-4659.75
-4659.75
-4659.75
-4659.75
-245.25
-245.25
-245.25
-245.25
-245.25
-245.25
-245.25
-245.25
-245.25
-245.25
-245.25
-245.25
-245.25
-245.25
-245.25
-245.25
-245.25
-245.25
-245.25
-245.25
-735.75
-735.75
-735.75
-735.75
-735.75
-735.75
-735.75
-735.75
-735.75
-735.75
-735.75
-735.75
-735.75
-735.75
-735.75
-735.75
-735.75
-735.75
-735.75
-735.75
-1226.25
-1226.25
-1226.25
-1226.25
-1226.25
-1226.25
-1226.25
-1226.25
-1226.25
-1226.25
-1226.25
-1226.25
-1226.25
-1226.25
-1226.25
-1226.25
-1226.25
-1226.25
-1226.25
-1226.25
-1716.75
-1716.75
-1716.75
-1716.75
-1716.75
-1716.75
-1716.75
-1716.75
-1716.75
-1716.75
-1716.75
-1716.75
-1716.75
-1716.75
-1716.75
-1716.75
-1716.75
-1716.75
-1716.75
-1716.75
-2207.25
-2207.25
-2207.25
-2207.25
-2207.25
-2207.25
-2207.25
-2207.25
-2207.25
-2207.25
-2207.25
-2207.25
-2207.25
-2207.25
-2207.25
-2207.25
-2207.25
-2207.25
-2207.25
-2207.25
-2697.75
-2697.75
-2697.75
-2697.75
-2697.75
-2697.75
-2697.75
-2697.75
-2697.75
-2697.75
-2697.75
-2697.75
-2697.75
-2697.75
-2697.75
-2697.75
-2697.75
-2697.75
-2697.75
-2697.75
-3188.25
-3188.25
-3188.25
-3188.25
-3188.25
-3188.25
-3188.25
-3188.25
-3188.25
-3188.25
-3188.25
-3188.25
-3188.25
-3188.25
-3188.25
-3188.25
-3188.25
-3188.25
-3188.25
-3188.25
-3678.75
-3678.75
-3678.75
-3678.75
-3678.75
-3678.75
-3678.75
-3678.75
-3678.75
-3678.75
-3678.75
-3678.75
-3678.75
-3678.75
-3678.75
-3678.75
-3678.75
-3678.75
-3678.75
-3678.75
-4169.25
-4169.25
-4169.25
-4169.25
-4169.25
-4169.25
-4169.25
-4169.25
-4169.25
-4169.25
-4169.25
-4169.25
-4169.25
-4169.25
-4169.25
-4169.25
-4169.25
-4169.25
-4169.25
-4169.25
-4659.75
-4659.75
-4659.75
-4659.75
-4659.75
-4659.75
-4659.75
-4659.75
-4659.75
-4659.75
-4659.75
-4659.75
-4659.75
-4659.75
-4659.75
-4659.75
-4659.75
-4659.75
-4659.75
-4659.75
-245.25
-245.25
-245.25
-245.25
-245.25
-245.25
-245.25
-245.25
-245.25
-245.25
-245.25
-245.25
-245.25
-245.25
-245.25
-245.25
-245.25
-245.25
-245.25
-245.25
-735.75
-735.75
-735.75
-735.75
-735.75
-735.75
-735.75
-735.75
-735.75
-735.75
-735.75
-735.75
-735.75
-735.75
-735.75
-735.75
-735.75
-735.75
-735.75
-735.75
-1226.25
-1226.25
-1226.25
-1226.25
-1226.25
-1226.25
-1226.25
-1226.25
-1226.25
-1226.25
-1226.25
-1226.25
-1226.25
-1226.25
-1226.25
-1226.25
-1226.25
-1226.25
-1226.25
-1226.25
-1716.75
-1716.75
-1716.75
-1716.75
-1716.75
-1716.75
-1716.75
-1716.75
-1716.75
-1716.75
-1716.75
-1716.75
-1716.75
-1716.75
-1716.75
-1716.75
-1716.75
-1716.75
-1716.75
-1716.75
-2207.25
-2207.25
-2207.25
-2207.25
-2207.25
-2207.25
-2207.25
-2207.25
-2207.25
-2207.25
-2207.25
-2207.25
-2207.25
-2207.25
-2207.25
-2207.25
-2207.25
-2207.25
-2207.25
-2207.25
-2697.75
-2697.75
-2697.75
-2697.75
-2697.75
-2697.75
-2697.75
-2697.75
-2697.75
-2697.75
-2697.75
-2697.75
-2697.75
-2697.75
-2697.75
-2697.75
-2697.75
-2697.75
-2697.75
-2697.75
-3188.25
-3188.25
-3188.25
-3188.25
-3188.25
-3188.25
-3188.25
-3188.25
-3188.25
-3188.25
-3188.25
-3188.25
-3188.25
-3188.25
-3188.25
-3188.25
-3188.25
-3188.25
-3188.25
-3188.25
-3678.75
-3678.75
-3678.75
-3678.75
-3678.75
-3678.75
-3678.75
-3678.75
-3678.75
-3678.75
-3678.75
-3678.75
-3678.75
-3678.75
-3678.75
-3678.75
-3678.75
-3678.75
-3678.75
-3678.75
-4169.25
-4169.25
-4169.25
-4169.25
-4169.25
-4169.25
-4169.25
-4169.25
-4169.25
-4169.25
-4169.25
-4169.25
-4169.25
-4169.25
-4169.25
-4169.25
-4169.25
-4169.25
-4169.25
-4169.25
-4659.75
-4659.75
-4659.75
-4659.75
-4659.75
-4659.75
-4659.75
-4659.75
-4659.75
-4659.75
-4659.75
-4659.75
-4659.75
-4659.75
-4659.75
-4659.75
-4659.75
-4659.75
-4659.75
-4659.75
-245.25
-245.25
-245.25
-245.25
-245.25
-245.25
-245.25
-245.25
-245.25
-245.25
-245.25
-245.25
-245.25
-245.25
-245.25
-245.25
-245.25
-245.25
-245.25
-245.25
-735.75
-735.75
-735.75
-735.75
-735.75
-735.75
-735.75
-735.75
-735.75
-735.75
-735.75
-735.75
-735.75
-735.75
-735.75
-735.75
-735.75
-735.75
-735.75
-735.75
-1226.25
-1226.25
-1226.25
-1226.25
-1226.25
-1226.25
-1226.25
-1226.25
-1226.25
-1226.25
-1226.25
-1226.25
-1226.25
-1226.25
-1226.25
-1226.25
-1226.25
-1226.25
-1226.25
-1226.25
-1716.75
-1716.75
-1716.75
-1716.75
-1716.75
-1716.75
-1716.75
-1716.75
-1716.75
-1716.75
-1716.75
-1716.75
-1716.75
-1716.75
-1716.75
-1716.75
-1716.75
-1716.75
-1716.75
-1716.75
-2207.25
-2207.25
-2207.25
-2207.25
-2207.25
-2207.25
-2207.25
-2207.25
-2207.25
-2207.25
-2207.25
-2207.25
-2207.25
-2207.25
-2207.25
-2207.25
-2207.25
-2207.25
-2207.25
-2207.25
-2697.75
-2697.75
-2697.75
-2697.75
-2697.75
-2697.75
-2697.75
-2697.75
-2697.75
-2697.75
-2697.75
-2697.75
-2697.75
-2697.75
-2697.75
-2697.75
-2697.75
-2697.75
-2697.75
-2697.75
-3188.25
-3188.25
-3188.25
-3188.25
-3188.25
-3188.25
-3188.25
-3188.25
-3188.25
-3188.25
-3188.25
-3188.25
-3188.25
-3188.25
-3188.25
-3188.25
-3188.25
-3188.25
-3188.25
-3188.25
-3678.75
-3678.75
-3678.75
-3678.75
-3678.75
-3678.75
-3678.75
-3678.75
-3678.75
-3678.75
-3678.75
-3678.75
-3678.75
-3678.75
-3678.75
-3678.75
-3678.75
-3678.75
-3678.75
-3678.75
-4169.25
-4169.25
-4169.25
-4169.25
-4169.25
-4169.25
-4169.25
-4169.25
-4169.25
-4169.25
-4169.25
-4169.25
-4169.25
-4169.25
-4169.25
-4169.25
-4169.25
-4169.25
-4169.25
-4169.25
-4659.75
-4659.75
-4659.75
-4659.75
-4659.75
-4659.75
-4659.75
-4659.75
-4659.75
-4659.75
-4659.75
-4659.75
-4659.75
-4659.75
-4659.75
-4659.75
-4659.75
-4659.75
-4659.75
-4659.75
-245.25
-245.25
-245.25
-245.25
-245.25
-245.25
-245.25
-245.25
-245.25
-245.25
-245.25
-245.25
-245.25
-245.25
-245.25
-245.25
-245.25
-245.25
-245.25
-245.25
-735.75
-735.75
-735.75
-735.75
-735.75
-735.75
-735.75
-735.75
-735.75
-735.75
-735.75
-735.75
-735.75
-735.75
-735.75
-735.75
-735.75
-735.75
-735.75
-735.75
-1226.25
-1226.25
-1226.25
-1226.25
-1226.25
-1226.25
-1226.25
-1226.25
-1226.25
-1226.25
-1226.25
-1226.25
-1226.25
-1226.25
-1226.25
-1226.25
-1226.25
-1226.25
-1226.25
-1226.25
-1716.75
-1716.75
-1716.75
-1716.75
-1716.75
-1716.75
-1716.75
-1716.75
-1716.75
-1716.75
-1716.75
-1716.75
-1716.75
-1716.75
-1716.75
-1716.75
-1716.75
-1716.75
-1716.75
-1716.75
-2207.25
-2207.25
-2207.25
-2207.25
-2207.25
-2207.25
-2207.25
-2207.25
-2207.25
-2207.25
-2207.25
-2207.25
-2207.25
-2207.25
-2207.25
-2207.25
-2207.25
-2207.25
-2207.25
-2207.25
-2697.75
-2697.75
-2697.75
-2697.75
-2697.75
-2697.75
-2697.75
-2697.75
-2697.75
-2697.75
-2697.75
-2697.75
-2697.75
-2697.75
-2697.75
-2697.75
-2697.75
-2697.75
-2697.75
-2697.75
-3188.25
-3188.25
-3188.25
-3188.25
-3188.25
-3188.25
-3188.25
-3188.25
-3188.25
-3188.25
-3188.25
-3188.25
-3188.25
-3188.25
-3188.25
-3188.25
-3188.25
-3188.25
-3188.25
-3188.25
-3678.75
-3678.75
-3678.75
-3678.75
-3678.75
-3678.75
-3678.75
-3678.75
-3678.75
-3678.75
-3678.75
-3678.75
-3678.75
-3678.75
-3678.75
-3678.75
-3678.75
-3678.75
-3678.75
-3678.75
-4169.25
-4169.25
-4169.25
-4169.25
-4169.25
-4169.25
-4169.25
-4169.25
-4169.25
-4169.25
-4169.25
-4169.25
-4169.25
-4169.25
-4169.25
-4169.25
-4169.25
-4169.25
-4169.25
-4169.25
-4659.75
-4659.75
-4659.75
-4659.75
-4659.75
-4659.75
-4659.75
-4659.75
-4659.75
-4659.75
-4659.75
-4659.75
-4659.75
-4659.75
-4659.75
-4659.75
-4659.75
-4659.75
-4659.75
-4659.75
-245.25
-245.25
-245.25
-245.25
-245.25
-245.25
-245.25
-245.25
-245.25
-245.25
-245.25
-245.25
-245.25
-245.25
-245.25
-245.25
-245.25
-245.25
-245.25
-245.25
-735.75
-735.75
-735.75
-735.75
-735.75
-735.75
-735.75
-735.75
-735.75
-735.75
-735.75
-735.75
-735.75
-735.75
-735.75
-735.75
-735.75
-735.75
-735.75
-735.75
-1226.25
-1226.25
-1226.25
-1226.25
-1226.25
-1226.25
-1226.25
-1226.25
-1226.25
-1226.25
-1226.25
-1226.25
-1226.25
-1226.25
-1226.25
-1226.25
-1226.25
-1226.25
-1226.25
-1226.25
-1716.75
-1716.75
-1716.75
-1716.75
-1716.75
-1716.75
-1716.75
-1716.75
-1716.75
-1716.75
-1716.75
-1716.75
-1716.75
-1716.75
-1716.75
-1716.75
-1716.75
-1716.75
-1716.75
-1716.75
-2207.25
-2207.25
-2207.25
-2207.25
-2207.25
-2207.25
-2207.25
-2207.25
-2207.25
-2207.25
-2207.25
-2207.25
-2207.25
-2207.25
-2207.25
-2207.25
-2207.25
-2207.25
-2207.25
-2207.25
-2697.75
-2697.75
-2697.75
-2697.75
-2697.75
-2697.75
-2697.75
-2697.75
-2697.75
-2697.75
-2697.75
-2697.75
-2697.75
-2697.75
-2697.75
-2697.75
-2697.75
-2697.75
-2697.75
-2697.75
-3188.25
-3188.25
-3188.25
-3188.25
-3188.25
-3188.25
-3188.25
-3188.25
-3188.25
-3188.25
-3188.25
-3188.25
-3188.25
-3188.25
-3188.25
-3188.25
-3188.25
-3188.25
-3188.25
-3188.25
-3678.75
-3678.75
-3678.75
-3678.75
-3678.75
-3678.75
-3678.75
-3678.75
-3678.75
-3678.75
-3678.75
-3678.75
-3678.75
-3678.75
-3678.75
-3678.75
-3678.75
-3678.75
-3678.75
-3678.75
-4169.25
-4169.25
-4169.25
-4169.25
-4169.25
-4169.25
-4169.25
-4169.25
-4169.25
-4169.25
-4169.25
-4169.25
-4169.25
-4169.25
-4169.25
-4169.25
-4169.25
-4169.25
-4169.25
-4169.25
-4659.75
-4659.75
-4659.75
-4659.75
-4659.75
-4659.75
-4659.75
-4659.75
-4659.75
-4659.75
-4659.75
-4659.75
-4659.75
-4659.75
-4659.75
-4659.75
-4659.75
-4659.75
-4659.75
-4659.75
-245.25
-245.25
-245.25
-245.25
-245.25
-245.25
-245.25
-245.25
-245.25
-245.25
-245.25
-245.25
-245.25
-245.25
-245.25
-245.25
-245.25
-245.25
-245.25
-245.25
-735.75
-735.75
-735.75
-735.75
-735.75
-735.75
-735.75
-735.75
-735.75
-735.75
-735.75
-735.75
-735.75
-735.75
-735.75
-735.75
-735.75
-735.75
-735.75
-735.75
-1226.25
-1226.25
-1226.25
-1226.25
-1226.25
-1226.25
-1226.25
-1226.25
-1226.25
-1226.25
-1226.25
-1226.25
-1226.25
-1226.25
-1226.25
-1226.25
-1226.25
-1226.25
-1226.25
-1226.25
-1716.75
-1716.75
-1716.75
-1716.75
-1716.75
-1716.75
-1716.75
-1716.75
-1716.75
-1716.75
-1716.75
-1716.75
-1716.75
-1716.75
-1716.75
-1716.75
-1716.75
-1716.75
-1716.75
-1716.75
-2207.25
-2207.25
-2207.25
-2207.25
-2207.25
-2207.25
-2207.25
-2207.25
-2207.25
-2207.25
-2207.25
-2207.25
-2207.25
-2207.25
-2207.25
-2207.25
-2207.25
-2207.25
-2207.25
-2207.25
-2697.75
-2697.75
-2697.75
-2697.75
-2697.75
-2697.75
-2697.75
-2697.75
-2697.75
-2697.75
-2697.75
-2697.75
-2697.75
-2697.75
-2697.75
-2697.75
-2697.75
-2697.75
-2697.75
-2697.75
-3188.25
-3188.25
-3188.25
-3188.25
-3188.25
-3188.25
-3188.25
-3188.25
-3188.25
-3188.25
-3188.25
-3188.25
-3188.25
-3188.25
-3188.25
-3188.25
-3188.25
-3188.25
-3188.25
-3188.25
-3678.75
-3678.75
-3678.75
-3678.75
-3678.75
-3678.75
-3678.75
-3678.75
-3678.75
-3678.75
-3678.75
-3678.75
-3678.75
-3678.75
-3678.75
-3678.75
-3678.75
-3678.75
-3678.75
-3678.75
-4169.25
-4169.25
-4169.25
-4169.25
-4169.25
-4169.25
-4169.25
-4169.25
-4169.25
-4169.25
-4169.25
-4169.25
-4169.25
-4169.25
-4169.25
-4169.25
-4169.25
-4169.25
-4169.25
-4169.25
-4659.75
-4659.75
-4659.75
-4659.75
-4659.75
-4659.75
-4659.75
-4659.75
-4659.75
-4659.75
-4659.75
-4659.75
-4659.75
-4659.75
-4659.75
-4659.75
-4659.75
-4659.75
-4659.75
-4659.75
-245.25
-245.25
-245.25
-245.25
-245.25
-245.25
-245.25
-245.25
-245.25
-245.25
-245.25
-245.25
-245.25
-245.25
-245.25
-245.25
-245.25
-245.25
-245.25
-245.25
-735.75
-735.75
-735.75
-735.75
-735.75
-735.75
-735.75
-735.75
-735.75
-735.75
-735.75
-735.75
-735.75
-735.75
-735.75
-735.75
-735.75
-735.75
-735.75
-735.75
-1226.25
-1226.25
-1226.25
-1226.25
-1226.25
-1226.25
-1226.25
-1226.25
-1226.25
-1226.25
-1226.25
-1226.25
-1226.25
-1226.25
-1226.25
-1226.25
-1226.25
-1226.25
-1226.25
-1226.25
-1716.75
-1716.75
-1716.75
-1716.75
-1716.75
-1716.75
-1716.75
-1716.75
-1716.75
-1716.75
-1716.75
-1716.75
-1716.75
-1716.75
-1716.75
-1716.75
-1716.75
-1716.75
-1716.75
-1716.75
-2207.25
-2207.25
-2207.25
-2207.25
-2207.25
-2207.25
-2207.25
-2207.25
-2207.25
-2207.25
-2207.25
-2207.25
-2207.25
-2207.25
-2207.25
-2207.25
-2207.25
-2207.25
-2207.25
-2207.25
-2697.75
-2697.75
-2697.75
-2697.75
-2697.75
-2697.75
-2697.75
-2697.75
-2697.75
-2697.75
-2697.75
-2697.75
-2697.75
-2697.75
-2697.75
-2697.75
-2697.75
-2697.75
-2697.75
-2697.75
-3188.25
-3188.25
-3188.25
-3188.25
-3188.25
-3188.25
-3188.25
-3188.25
-3188.25
-3188.25
-3188.25
-3188.25
-3188.25
-3188.25
-3188.25
-3188.25
-3188.25
-3188.25
-3188.25
-3188.25
-3678.75
-3678.75
-3678.75
-3678.75
-3678.75
-3678.75
-3678.75
-3678.75
-3678.75
-3678.75
-3678.75
-3678.75
-3678.75
-3678.75
-3678.75
-3678.75
-3678.75
-3678.75
-3678.75
-3678.75
-4169.25
-4169.25
-4169.25
-4169.25
-4169.25
-4169.25
-4169.25
-4169.25
-4169.25
-4169.25
-4169.25
-4169.25
-4169.25
-4169.25
-4169.25
-4169.25
-4169.25
-4169.25
-4169.25
-4169.25
-4659.75
-4659.75
-4659.75
-4659.75
-4659.75
-4659.75
-4659.75
-4659.75
-4659.75
-4659.75
-4659.75
-4659.75
-4659.75
-4659.75
-4659.75
-4659.75
-4659.75
-4659.75
-4659.75
-4659.75
-245.25
-245.25
-245.25
-245.25
-245.25
-245.25
-245.25
-245.25
-245.25
-245.25
-245.25
-245.25
-245.25
-245.25
-245.25
-245.25
-245.25
-245.25
-245.25
-245.25
-735.75
-735.75
-735.75
-735.75
-735.75
-735.75
-735.75
-735.75
-735.75
-735.75
-735.75
-735.75
-735.75
-735.75
-735.75
-735.75
-735.75
-735.75
-735.75
-735.75
-1226.25
-1226.25
-1226.25
-1226.25
-1226.25
-1226.25
-1226.25
-1226.25
-1226.25
-1226.25
-1226.25
-1226.25
-1226.25
-1226.25
-1226.25
-1226.25
-1226.25
-1226.25
-1226.25
-1226.25
-1716.75
-1716.75
-1716.75
-1716.75
-1716.75
-1716.75
-1716.75
-1716.75
-1716.75
-1716.75
-1716.75
-1716.75
-1716.75
-1716.75
-1716.75
-1716.75
-1716.75
-1716.75
-1716.75
-1716.75
-2207.25
-2207.25
-2207.25
-2207.25
-2207.25
-2207.25
-2207.25
-2207.25
-2207.25
-2207.25
-2207.25
-2207.25
-2207.25
-2207.25
-2207.25
-2207.25
-2207.25
-2207.25
-2207.25
-2207.25
-2697.75
-2697.75
-2697.75
-2697.75
-2697.75
-2697.75
-2697.75
-2697.75
-2697.75
-2697.75
-2697.75
-2697.75
-2697.75
-2697.75
-2697.75
-2697.75
-2697.75
-2697.75
-2697.75
-2697.75
-3188.25
-3188.25
-3188.25
-3188.25
-3188.25
-3188.25
-3188.25
-3188.25
-3188.25
-3188.25
-3188.25
-3188.25
-3188.25
-3188.25
-3188.25
-3188.25
-3188.25
-3188.25
-3188.25
-3188.25
-3678.75
-3678.75
-3678.75
-3678.75
-3678.75
-3678.75
-3678.75
-3678.75
-3678.75
-3678.75
-3678.75
-3678.75
-3678.75
-3678.75
-3678.75
-3678.75
-3678.75
-3678.75
-3678.75
-3678.75
-4169.25
-4169.25
-4169.25
-4169.25
-4169.25
-4169.25
-4169.25
-4169.25
-4169.25
-4169.25
-4169.25
-4169.25
-4169.25
-4169.25
-4169.25
-4169.25
-4169.25
-4169.25
-4169.25
-4169.25
-4659.75
-4659.75
-4659.75
-4659.75
-4659.75
-4659.75
-4659.75
-4659.75
-4659.75
-4659.75
-4659.75
-4659.75
-4659.75
-4659.75
-4659.75
-4659.75
-4659.75
-4659.75
-4659.75
-4659.75
-245.25
-245.25
-245.25
-245.25
-245.25
-245.25
-245.25
-245.25
-245.25
-245.25
-245.25
-245.25
-245.25
-245.25
-245.25
-245.25
-245.25
-245.25
-245.25
-245.25
-735.75
-735.75
-735.75
-735.75
-735.75
-735.75
-735.75
-735.75
-735.75
-735.75
-735.75
-735.75
-735.75
-735.75
-735.75
-735.75
-735.75
-735.75
-735.75
-735.75
-1226.25
-1226.25
-1226.25
-1226.25
-1226.25
-1226.25
-1226.25
-1226.25
-1226.25
-1226.25
-1226.25
-1226.25
-1226.25
-1226.25
-1226.25
-1226.25
-1226.25
-1226.25
-1226.25
-1226.25
-1716.75
-1716.75
-1716.75
-1716.75
-1716.75
-1716.75
-1716.75
-1716.75
-1716.75
-1716.75
-1716.75
-1716.75
-1716.75
-1716.75
-1716.75
-1716.75
-1716.75
-1716.75
-1716.75
-1716.75
-2207.25
-2207.25
-2207.25
-2207.25
-2207.25
-2207.25
-2207.25
-2207.25
-2207.25
-2207.25
-2207.25
-2207.25
-2207.25
-2207.25
-2207.25
-2207.25
-2207.25
-2207.25
-2207.25
-2207.25
-2697.75
-2697.75
-2697.75
-2697.75
-2697.75
-2697.75
-2697.75
-2697.75
-2697.75
-2697.75
-2697.75
-2697.75
-2697.75
-2697.75
-2697.75
-2697.75
-2697.75
-2697.75
-2697.75
-2697.75
-3188.25
-3188.25
-3188.25
-3188.25
-3188.25
-3188.25
-3188.25
-3188.25
-3188.25
-3188.25
-3188.25
-3188.25
-3188.25
-3188.25
-3188.25
-3188.25
-3188.25
-3188.25
-3188.25
-3188.25
-3678.75
-3678.75
-3678.75
-3678.75
-3678.75
-3678.75
-3678.75
-3678.75
-3678.75
-3678.75
-3678.75
-3678.75
-3678.75
-3678.75
-3678.75
-3678.75
-3678.75
-3678.75
-3678.75
-3678.75
-4169.25
-4169.25
-4169.25
-4169.25
-4169.25
-4169.25
-4169.25
-4169.25
-4169.25
-4169.25
-4169.25
-4169.25
-4169.25
-4169.25
-4169.25
-4169.25
-4169.25
-4169.25
-4169.25
-4169.25
-4659.75
-4659.75
-4659.75
-4659.75
-4659.75
-4659.75
-4659.75
-4659.75
-4659.75
-4659.75
-4659.75
-4659.75
-4659.75
-4659.75
-4659.75
-4659.75
-4659.75
-4659.75
-4659.75
-4659.75
-245.25
-245.25
-245.25
-245.25
-245.25
-245.25
-245.25
-245.25
-245.25
-245.25
-245.25
-245.25
-245.25
-245.25
-245.25
-245.25
-245.25
-245.25
-245.25
-245.25
-735.75
-735.75
-735.75
-735.75
-735.75
-735.75
-735.75
-735.75
-735.75
-735.75
-735.75
-735.75
-735.75
-735.75
-735.75
-735.75
-735.75
-735.75
-735.75
-735.75
-1226.25
-1226.25
-1226.25
-1226.25
-1226.25
-1226.25
-1226.25
-1226.25
-1226.25
-1226.25
-1226.25
-1226.25
-1226.25
-1226.25
-1226.25
-1226.25
-1226.25
-1226.25
-1226.25
-1226.25
-1716.75
-1716.75
-1716.75
-1716.75
-1716.75
-1716.75
-1716.75
-1716.75
-1716.75
-1716.75
-1716.75
-1716.75
-1716.75
-1716.75
-1716.75
-1716.75
-1716.75
-1716.75
-1716.75
-1716.75
-2207.25
-2207.25
-2207.25
-2207.25
-2207.25
-2207.25
-2207.25
-2207.25
-2207.25
-2207.25
-2207.25
-2207.25
-2207.25
-2207.25
-2207.25
-2207.25
-2207.25
-2207.25
-2207.25
-2207.25
-2697.75
-2697.75
-2697.75
-2697.75
-2697.75
-2697.75
-2697.75
-2697.75
-2697.75
-2697.75
-2697.75
-2697.75
-2697.75
-2697.75
-2697.75
-2697.75
-2697.75
-2697.75
-2697.75
-2697.75
-3188.25
-3188.25
-3188.25
-3188.25
-3188.25
-3188.25
-3188.25
-3188.25
-3188.25
-3188.25
-3188.25
-3188.25
-3188.25
-3188.25
-3188.25
-3188.25
-3188.25
-3188.25
-3188.25
-3188.25
-3678.75
-3678.75
-3678.75
-3678.75
-3678.75
-3678.75
-3678.75
-3678.75
-3678.75
-3678.75
-3678.75
-3678.75
-3678.75
-3678.75
-3678.75
-3678.75
-3678.75
-3678.75
-3678.75
-3678.75
-4169.25
-4169.25
-4169.25
-4169.25
-4169.25
-4169.25
-4169.25
-4169.25
-4169.25
-4169.25
-4169.25
-4169.25
-4169.25
-4169.25
-4169.25
-4169.25
-4169.25
-4169.25
-4169.25
-4169.25
-4659.75
-4659.75
-4659.75
-4659.75
-4659.75
-4659.75
-4659.75
-4659.75
-4659.75
-4659.75
-4659.75
-4659.75
-4659.75
-4659.75
-4659.75
-4659.75
-4659.75
-4659.75
-4659.75
-4659.75
-245.25
-245.25
-245.25
-245.25
-245.25
-245.25
-245.25
-245.25
-245.25
-245.25
-245.25
-245.25
-245.25
-245.25
-245.25
-245.25
-245.25
-245.25
-245.25
-245.25
-735.75
-735.75
-735.75
-735.75
-735.75
-735.75
-735.75
-735.75
-735.75
-735.75
-735.75
-735.75
-735.75
-735.75
-735.75
-735.75
-735.75
-735.75
-735.75
-735.75
-1226.25
-1226.25
-1226.25
-1226.25
-1226.25
-1226.25
-1226.25
-1226.25
-1226.25
-1226.25
-1226.25
-1226.25
-1226.25
-1226.25
-1226.25
-1226.25
-1226.25
-1226.25
-1226.25
-1226.25
-1716.75
-1716.75
-1716.75
-1716.75
-1716.75
-1716.75
-1716.75
-1716.75
-1716.75
-1716.75
-1716.75
-1716.75
-1716.75
-1716.75
-1716.75
-1716.75
-1716.75
-1716.75
-1716.75
-1716.75
-2207.25
-2207.25
-2207.25
-2207.25
-2207.25
-2207.25
-2207.25
-2207.25
-2207.25
-2207.25
-2207.25
-2207.25
-2207.25
-2207.25
-2207.25
-2207.25
-2207.25
-2207.25
-2207.25
-2207.25
-2697.75
-2697.75
-2697.75
-2697.75
-2697.75
-2697.75
-2697.75
-2697.75
-2697.75
-2697.75
-2697.75
-2697.75
-2697.75
-2697.75
-2697.75
-2697.75
-2697.75
-2697.75
-2697.75
-2697.75
-3188.25
-3188.25
-3188.25
-3188.25
-3188.25
-3188.25
-3188.25
-3188.25
-3188.25
-3188.25
-3188.25
-3188.25
-3188.25
-3188.25
-3188.25
-3188.25
-3188.25
-3188.25
-3188.25
-3188.25
-3678.75
-3678.75
-3678.75
-3678.75
-3678.75
-3678.75
-3678.75
-3678.75
-3678.75
-3678.75
-3678.75
-3678.75
-3678.75
-3678.75
-3678.75
-3678.75
-3678.75
-3678.75
-3678.75
-3678.75
-4169.25
-4169.25
-4169.25
-4169.25
-4169.25
-4169.25
-4169.25
-4169.25
-4169.25
-4169.25
-4169.25
-4169.25
-4169.25
-4169.25
-4169.25
-4169.25
-4169.25
-4169.25
-4169.25
-4169.25
-4659.75
-4659.75
-4659.75
-4659.75
-4659.75
-4659.75
-4659.75
-4659.75
-4659.75
-4659.75
-4659.75
-4659.75
-4659.75
-4659.75
-4659.75
-4659.75
-4659.75
-4659.75
-4659.75
-4659.75
-245.25
-245.25
-245.25
-245.25
-245.25
-245.25
-245.25
-245.25
-245.25
-245.25
-245.25
-245.25
-245.25
-245.25
-245.25
-245.25
-245.25
-245.25
-245.25
-245.25
-735.75
-735.75
-735.75
-735.75
-735.75
-735.75
-735.75
-735.75
-735.75
-735.75
-735.75
-735.75
-735.75
-735.75
-735.75
-735.75
-735.75
-735.75
-735.75
-735.75
-1226.25
-1226.25
-1226.25
-1226.25
-1226.25
-1226.25
-1226.25
-1226.25
-1226.25
-1226.25
-1226.25
-1226.25
-1226.25
-1226.25
-1226.25
-1226.25
-1226.25
-1226.25
-1226.25
-1226.25
-1716.75
-1716.75
-1716.75
-1716.75
-1716.75
-1716.75
-1716.75
-1716.75
-1716.75
-1716.75
-1716.75
-1716.75
-1716.75
-1716.75
-1716.75
-1716.75
-1716.75
-1716.75
-1716.75
-1716.75
-2207.25
-2207.25
-2207.25
-2207.25
-2207.25
-2207.25
-2207.25
-2207.25
-2207.25
-2207.25
-2207.25
-2207.25
-2207.25
-2207.25
-2207.25
-2207.25
-2207.25
-2207.25
-2207.25
-2207.25
-2697.75
-2697.75
-2697.75
-2697.75
-2697.75
-2697.75
-2697.75
-2697.75