/*--------------------------------*- C++ -*----------------------------------*\
| =========                 |                                                 |
| \\      /  F ield         | foam-extend: Open Source CFD                    |
|  \\    /   O peration     | Version:     5.0                                |
|   \\  /    A nd           | Web:         http://www.foam-extend.org         |
|    \\/     M anipulation  | For copyright notice see file Copyright         |
\*---------------------------------------------------------------------------*/
FoamFile
{
    version     2.0;
    format      ascii;
    class       volScalarField;
    location    "constant";
    object      gh;
}
// * * * * * * * * * * * * * * * * * * * * * * * * * * * * * * * * * * * * * //

dimensions      [0 2 -2 0 0 0 0];

internalField   nonuniform List<scalar>
4000
(
-245.25
-245.25
-245.25
-245.25
-245.25
-245.25
-245.25
-245.25
-245.25
-245.25
-245.25
-245.25
-245.25
-245.25
-245.25
-245.25
-245.25
-245.25
-245.25
-245.25
-735.75
-735.75
-735.75
-735.75
-735.75
-735.75
-735.75
-735.75
-735.75
-735.75
-735.75
-735.75
-735.75
-735.75
-735.75
-735.75
-735.75
-735.75
-735.75
-735.75
-1226.25
-1226.25
-1226.25
-1226.25
-1226.25
-1226.25
-1226.25
-1226.25
-1226.25
-1226.25
-1226.25
-1226.25
-1226.25
-1226.25
-1226.25
-1226.25
-1226.25
-1226.25
-1226.25
-1226.25
-1716.75
-1716.75
-1716.75
-1716.75
-1716.75
-1716.75
-1716.75
-1716.75
-1716.75
-1716.75
-1716.75
-1716.75
-1716.75
-1716.75
-1716.75
-1716.75
-1716.75
-1716.75
-1716.75
-1716.75
-2207.25
-2207.25
-2207.25
-2207.25
-2207.25
-2207.25
-2207.25
-2207.25
-2207.25
-2207.25
-2207.25
-2207.25
-2207.25
-2207.25
-2207.25
-2207.25
-2207.25
-2207.25
-2207.25
-2207.25
-2697.75
-2697.75
-2697.75
-2697.75
-2697.75
-2697.75
-2697.75
-2697.75
-2697.75
-2697.75
-2697.75
-2697.75
-2697.75
-2697.75
-2697.75
-2697.75
-2697.75
-2697.75
-2697.75
-2697.75
-3188.25
-3188.25
-3188.25
-3188.25
-3188.25
-3188.25
-3188.25
-3188.25
-3188.25
-3188.25
-3188.25
-3188.25
-3188.25
-3188.25
-3188.25
-3188.25
-3188.25
-3188.25
-3188.25
-3188.25
-3678.75
-3678.75
-3678.75
-3678.75
-3678.75
-3678.75
-3678.75
-3678.75
-3678.75
-3678.75
-3678.75
-3678.75
-3678.75
-3678.75
-3678.75
-3678.75
-3678.75
-3678.75
-3678.75
-3678.75
-4169.25
-4169.25
-4169.25
-4169.25
-4169.25
-4169.25
-4169.25
-4169.25
-4169.25
-4169.25
-4169.25
-4169.25
-4169.25
-4169.25
-4169.25
-4169.25
-4169.25
-4169.25
-4169.25
-4169.25
-4659.75
-4659.75
-4659.75
-4659.75
-4659.75
-4659.75
-4659.75
-4659.75
-4659.75
-4659.75
-4659.75
-4659.75
-4659.75
-4659.75
-4659.75
-4659.75
-4659.75
-4659.75
-4659.75
-4659.75
-245.25
-245.25
-245.25
-245.25
-245.25
-245.25
-245.25
-245.25
-245.25
-245.25
-245.25
-245.25
-245.25
-245.25
-245.25
-245.25
-245.25
-245.25
-245.25
-245.25
-735.75
-735.75
-735.75
-735.75
-735.75
-735.75
-735.75
-735.75
-735.75
-735.75
-735.75
-735.75
-735.75
-735.75
-735.75
-735.75
-735.75
-735.75
-735.75
-735.75
-1226.25
-1226.25
-1226.25
-1226.25
-1226.25
-1226.25
-1226.25
-1226.25
-1226.25
-1226.25
-1226.25
-1226.25
-1226.25
-1226.25
-1226.25
-1226.25
-1226.25
-1226.25
-1226.25
-1226.25
-1716.75
-1716.75
-1716.75
-1716.75
-1716.75
-1716.75
-1716.75
-1716.75
-1716.75
-1716.75
-1716.75
-1716.75
-1716.75
-1716.75
-1716.75
-1716.75
-1716.75
-1716.75
-1716.75
-1716.75
-2207.25
-2207.25
-2207.25
-2207.25
-2207.25
-2207.25
-2207.25
-2207.25
-2207.25
-2207.25
-2207.25
-2207.25
-2207.25
-2207.25
-2207.25
-2207.25
-2207.25
-2207.25
-2207.25
-2207.25
-2697.75
-2697.75
-2697.75
-2697.75
-2697.75
-2697.75
-2697.75
-2697.75
-2697.75
-2697.75
-2697.75
-2697.75
-2697.75
-2697.75
-2697.75
-2697.75
-2697.75
-2697.75
-2697.75
-2697.75
-3188.25
-3188.25
-3188.25
-3188.25
-3188.25
-3188.25
-3188.25
-3188.25
-3188.25
-3188.25
-3188.25
-3188.25
-3188.25
-3188.25
-3188.25
-3188.25
-3188.25
-3188.25
-3188.25
-3188.25
-3678.75
-3678.75
-3678.75
-3678.75
-3678.75
-3678.75
-3678.75
-3678.75
-3678.75
-3678.75
-3678.75
-3678.75
-3678.75
-3678.75
-3678.75
-3678.75
-3678.75
-3678.75
-3678.75
-3678.75
-4169.25
-4169.25
-4169.25
-4169.25
-4169.25
-4169.25
-4169.25
-4169.25
-4169.25
-4169.25
-4169.25
-4169.25
-4169.25
-4169.25
-4169.25
-4169.25
-4169.25
-4169.25
-4169.25
-4169.25
-4659.75
-4659.75
-4659.75
-4659.75
-4659.75
-4659.75
-4659.75
-4659.75
-4659.75
-4659.75
-4659.75
-4659.75
-4659.75
-4659.75
-4659.75
-4659.75
-4659.75
-4659.75
-4659.75
-4659.75
-245.25
-245.25
-245.25
-245.25
-245.25
-245.25
-245.25
-245.25
-245.25
-245.25
-245.25
-245.25
-245.25
-245.25
-245.25
-245.25
-245.25
-245.25
-245.25
-245.25
-735.75
-735.75
-735.75
-735.75
-735.75
-735.75
-735.75
-735.75
-735.75
-735.75
-735.75
-735.75
-735.75
-735.75
-735.75
-735.75
-735.75
-735.75
-735.75
-735.75
-1226.25
-1226.25
-1226.25
-1226.25
-1226.25
-1226.25
-1226.25
-1226.25
-1226.25
-1226.25
-1226.25
-1226.25
-1226.25
-1226.25
-1226.25
-1226.25
-1226.25
-1226.25
-1226.25
-1226.25
-1716.75
-1716.75
-1716.75
-1716.75
-1716.75
-1716.75
-1716.75
-1716.75
-1716.75
-1716.75
-1716.75
-1716.75
-1716.75
-1716.75
-1716.75
-1716.75
-1716.75
-1716.75
-1716.75
-1716.75
-2207.25
-2207.25
-2207.25
-2207.25
-2207.25
-2207.25
-2207.25
-2207.25
-2207.25
-2207.25
-2207.25
-2207.25
-2207.25
-2207.25
-2207.25
-2207.25
-2207.25
-2207.25
-2207.25
-2207.25
-2697.75
-2697.75
-2697.75
-2697.75
-2697.75
-2697.75
-2697.75
-2697.75
-2697.75
-2697.75
-2697.75
-2697.75
-2697.75
-2697.75
-2697.75
-2697.75
-2697.75
-2697.75
-2697.75
-2697.75
-3188.25
-3188.25
-3188.25
-3188.25
-3188.25
-3188.25
-3188.25
-3188.25
-3188.25
-3188.25
-3188.25
-3188.25
-3188.25
-3188.25
-3188.25
-3188.25
-3188.25
-3188.25
-3188.25
-3188.25
-3678.75
-3678.75
-3678.75
-3678.75
-3678.75
-3678.75
-3678.75
-3678.75
-3678.75
-3678.75
-3678.75
-3678.75
-3678.75
-3678.75
-3678.75
-3678.75
-3678.75
-3678.75
-3678.75
-3678.75
-4169.25
-4169.25
-4169.25
-4169.25
-4169.25
-4169.25
-4169.25
-4169.25
-4169.25
-4169.25
-4169.25
-4169.25
-4169.25
-4169.25
-4169.25
-4169.25
-4169.25
-4169.25
-4169.25
-4169.25
-4659.75
-4659.75
-4659.75
-4659.75
-4659.75
-4659.75
-4659.75
-4659.75
-4659.75
-4659.75
-4659.75
-4659.75
-4659.75
-4659.75
-4659.75
-4659.75
-4659.75
-4659.75
-4659.75
-4659.75
-245.25
-245.25
-245.25
-245.25
-245.25
-245.25
-245.25
-245.25
-245.25
-245.25
-245.25
-245.25
-245.25
-245.25
-245.25
-245.25
-245.25
-245.25
-245.25
-245.25
-735.75
-735.75
-735.75
-735.75
-735.75
-735.75
-735.75
-735.75
-735.75
-735.75
-735.75
-735.75
-735.75
-735.75
-735.75
-735.75
-735.75
-735.75
-735.75
-735.75
-1226.25
-1226.25
-1226.25
-1226.25
-1226.25
-1226.25
-1226.25
-1226.25
-1226.25
-1226.25
-1226.25
-1226.25
-1226.25
-1226.25
-1226.25
-1226.25
-1226.25
-1226.25
-1226.25
-1226.25
-1716.75
-1716.75
-1716.75
-1716.75
-1716.75
-1716.75
-1716.75
-1716.75
-1716.75
-1716.75
-1716.75
-1716.75
-1716.75
-1716.75
-1716.75
-1716.75
-1716.75
-1716.75
-1716.75
-1716.75
-2207.25
-2207.25
-2207.25
-2207.25
-2207.25
-2207.25
-2207.25
-2207.25
-2207.25
-2207.25
-2207.25
-2207.25
-2207.25
-2207.25
-2207.25
-2207.25
-2207.25
-2207.25
-2207.25
-2207.25
-2697.75
-2697.75
-2697.75
-2697.75
-2697.75
-2697.75
-2697.75
-2697.75
-2697.75
-2697.75
-2697.75
-2697.75
-2697.75
-2697.75
-2697.75
-2697.75
-2697.75
-2697.75
-2697.75
-2697.75
-3188.25
-3188.25
-3188.25
-3188.25
-3188.25
-3188.25
-3188.25
-3188.25
-3188.25
-3188.25
-3188.25
-3188.25
-3188.25
-3188.25
-3188.25
-3188.25
-3188.25
-3188.25
-3188.25
-3188.25
-3678.75
-3678.75
-3678.75
-3678.75
-3678.75
-3678.75
-3678.75
-3678.75
-3678.75
-3678.75
-3678.75
-3678.75
-3678.75
-3678.75
-3678.75
-3678.75
-3678.75
-3678.75
-3678.75
-3678.75
-4169.25
-4169.25
-4169.25
-4169.25
-4169.25
-4169.25
-4169.25
-4169.25
-4169.25
-4169.25
-4169.25
-4169.25
-4169.25
-4169.25
-4169.25
-4169.25
-4169.25
-4169.25
-4169.25
-4169.25
-4659.75
-4659.75
-4659.75
-4659.75
-4659.75
-4659.75
-4659.75
-4659.75
-4659.75
-4659.75
-4659.75
-4659.75
-4659.75
-4659.75
-4659.75
-4659.75
-4659.75
-4659.75
-4659.75
-4659.75
-245.25
-245.25
-245.25
-245.25
-245.25
-245.25
-245.25
-245.25
-245.25
-245.25
-245.25
-245.25
-245.25
-245.25
-245.25
-245.25
-245.25
-245.25
-245.25
-245.25
-735.75
-735.75
-735.75
-735.75
-735.75
-735.75
-735.75
-735.75
-735.75
-735.75
-735.75
-735.75
-735.75
-735.75
-735.75
-735.75
-735.75
-735.75
-735.75
-735.75
-1226.25
-1226.25
-1226.25
-1226.25
-1226.25
-1226.25
-1226.25
-1226.25
-1226.25
-1226.25
-1226.25
-1226.25
-1226.25
-1226.25
-1226.25
-1226.25
-1226.25
-1226.25
-1226.25
-1226.25
-1716.75
-1716.75
-1716.75
-1716.75
-1716.75
-1716.75
-1716.75
-1716.75
-1716.75
-1716.75
-1716.75
-1716.75
-1716.75
-1716.75
-1716.75
-1716.75
-1716.75
-1716.75
-1716.75
-1716.75
-2207.25
-2207.25
-2207.25
-2207.25
-2207.25
-2207.25
-2207.25
-2207.25
-2207.25
-2207.25
-2207.25
-2207.25
-2207.25
-2207.25
-2207.25
-2207.25
-2207.25
-2207.25
-2207.25
-2207.25
-2697.75
-2697.75
-2697.75
-2697.75
-2697.75
-2697.75
-2697.75
-2697.75
-2697.75
-2697.75
-2697.75
-2697.75
-2697.75
-2697.75
-2697.75
-2697.75
-2697.75
-2697.75
-2697.75
-2697.75
-3188.25
-3188.25
-3188.25
-3188.25
-3188.25
-3188.25
-3188.25
-3188.25
-3188.25
-3188.25
-3188.25
-3188.25
-3188.25
-3188.25
-3188.25
-3188.25
-3188.25
-3188.25
-3188.25
-3188.25
-3678.75
-3678.75
-3678.75
-3678.75
-3678.75
-3678.75
-3678.75
-3678.75
-3678.75
-3678.75
-3678.75
-3678.75
-3678.75
-3678.75
-3678.75
-3678.75
-3678.75
-3678.75
-3678.75
-3678.75
-4169.25
-4169.25
-4169.25
-4169.25
-4169.25
-4169.25
-4169.25
-4169.25
-4169.25
-4169.25
-4169.25
-4169.25
-4169.25
-4169.25
-4169.25
-4169.25
-4169.25
-4169.25
-4169.25
-4169.25
-4659.75
-4659.75
-4659.75
-4659.75
-4659.75
-4659.75
-4659.75
-4659.75
-4659.75
-4659.75
-4659.75
-4659.75
-4659.75
-4659.75
-4659.75
-4659.75
-4659.75
-4659.75
-4659.75
-4659.75
-245.25
-245.25
-245.25
-245.25
-245.25
-245.25
-245.25
-245.25
-245.25
-245.25
-245.25
-245.25
-245.25
-245.25
-245.25
-245.25
-245.25
-245.25
-245.25
-245.25
-735.75
-735.75
-735.75
-735.75
-735.75
-735.75
-735.75
-735.75
-735.75
-735.75
-735.75
-735.75
-735.75
-735.75
-735.75
-735.75
-735.75
-735.75
-735.75
-735.75
-1226.25
-1226.25
-1226.25
-1226.25
-1226.25
-1226.25
-1226.25
-1226.25
-1226.25
-1226.25
-1226.25
-1226.25
-1226.25
-1226.25
-1226.25
-1226.25
-1226.25
-1226.25
-1226.25
-1226.25
-1716.75
-1716.75
-1716.75
-1716.75
-1716.75
-1716.75
-1716.75
-1716.75
-1716.75
-1716.75
-1716.75
-1716.75
-1716.75
-1716.75
-1716.75
-1716.75
-1716.75
-1716.75
-1716.75
-1716.75
-2207.25
-2207.25
-2207.25
-2207.25
-2207.25
-2207.25
-2207.25
-2207.25
-2207.25
-2207.25
-2207.25
-2207.25
-2207.25
-2207.25
-2207.25
-2207.25
-2207.25
-2207.25
-2207.25
-2207.25
-2697.75
-2697.75
-2697.75
-2697.75
-2697.75
-2697.75
-2697.75
-2697.75
-2697.75
-2697.75
-2697.75
-2697.75
-2697.75
-2697.75
-2697.75
-2697.75
-2697.75
-2697.75
-2697.75
-2697.75
-3188.25
-3188.25
-3188.25
-3188.25
-3188.25
-3188.25
-3188.25
-3188.25
-3188.25
-3188.25
-3188.25
-3188.25
-3188.25
-3188.25
-3188.25
-3188.25
-3188.25
-3188.25
-3188.25
-3188.25
-3678.75
-3678.75
-3678.75
-3678.75
-3678.75
-3678.75
-3678.75
-3678.75
-3678.75
-3678.75
-3678.75
-3678.75
-3678.75
-3678.75
-3678.75
-3678.75
-3678.75
-3678.75
-3678.75
-3678.75
-4169.25
-4169.25
-4169.25
-4169.25
-4169.25
-4169.25
-4169.25
-4169.25
-4169.25
-4169.25
-4169.25
-4169.25
-4169.25
-4169.25
-4169.25
-4169.25
-4169.25
-4169.25
-4169.25
-4169.25
-4659.75
-4659.75
-4659.75
-4659.75
-4659.75
-4659.75
-4659.75
-4659.75
-4659.75
-4659.75
-4659.75
-4659.75
-4659.75
-4659.75
-4659.75
-4659.75
-4659.75
-4659.75
-4659.75
-4659.75
-245.25
-245.25
-245.25
-245.25
-245.25
-245.25
-245.25
-245.25
-245.25
-245.25
-245.25
-245.25
-245.25
-245.25
-245.25
-245.25
-245.25
-245.25
-245.25
-245.25
-735.75
-735.75
-735.75
-735.75
-735.75
-735.75
-735.75
-735.75
-735.75
-735.75
-735.75
-735.75
-735.75
-735.75
-735.75
-735.75
-735.75
-735.75
-735.75
-735.75
-1226.25
-1226.25
-1226.25
-1226.25
-1226.25
-1226.25
-1226.25
-1226.25
-1226.25
-1226.25
-1226.25
-1226.25
-1226.25
-1226.25
-1226.25
-1226.25
-1226.25
-1226.25
-1226.25
-1226.25
-1716.75
-1716.75
-1716.75
-1716.75
-1716.75
-1716.75
-1716.75
-1716.75
-1716.75
-1716.75
-1716.75
-1716.75
-1716.75
-1716.75
-1716.75
-1716.75
-1716.75
-1716.75
-1716.75
-1716.75
-2207.25
-2207.25
-2207.25
-2207.25
-2207.25
-2207.25
-2207.25
-2207.25
-2207.25
-2207.25
-2207.25
-2207.25
-2207.25
-2207.25
-2207.25
-2207.25
-2207.25
-2207.25
-2207.25
-2207.25
-2697.75
-2697.75
-2697.75
-2697.75
-2697.75
-2697.75
-2697.75
-2697.75
-2697.75
-2697.75
-2697.75
-2697.75
-2697.75
-2697.75
-2697.75
-2697.75
-2697.75
-2697.75
-2697.75
-2697.75
-3188.25
-3188.25
-3188.25
-3188.25
-3188.25
-3188.25
-3188.25
-3188.25
-3188.25
-3188.25
-3188.25
-3188.25
-3188.25
-3188.25
-3188.25
-3188.25
-3188.25
-3188.25
-3188.25
-3188.25
-3678.75
-3678.75
-3678.75
-3678.75
-3678.75
-3678.75
-3678.75
-3678.75
-3678.75
-3678.75
-3678.75
-3678.75
-3678.75
-3678.75
-3678.75
-3678.75
-3678.75
-3678.75
-3678.75
-3678.75
-4169.25
-4169.25
-4169.25
-4169.25
-4169.25
-4169.25
-4169.25
-4169.25
-4169.25
-4169.25
-4169.25
-4169.25
-4169.25
-4169.25
-4169.25
-4169.25
-4169.25
-4169.25
-4169.25
-4169.25
-4659.75
-4659.75
-4659.75
-4659.75
-4659.75
-4659.75
-4659.75
-4659.75
-4659.75
-4659.75
-4659.75
-4659.75
-4659.75
-4659.75
-4659.75
-4659.75
-4659.75
-4659.75
-4659.75
-4659.75
-245.25
-245.25
-245.25
-245.25
-245.25
-245.25
-245.25
-245.25
-245.25
-245.25
-245.25
-245.25
-245.25
-245.25
-245.25
-245.25
-245.25
-245.25
-245.25
-245.25
-735.75
-735.75
-735.75
-735.75
-735.75
-735.75
-735.75
-735.75
-735.75
-735.75
-735.75
-735.75
-735.75
-735.75
-735.75
-735.75
-735.75
-735.75
-735.75
-735.75
-1226.25
-1226.25
-1226.25
-1226.25
-1226.25
-1226.25
-1226.25
-1226.25
-1226.25
-1226.25
-1226.25
-1226.25
-1226.25
-1226.25
-1226.25
-1226.25
-1226.25
-1226.25
-1226.25
-1226.25
-1716.75
-1716.75
-1716.75
-1716.75
-1716.75
-1716.75
-1716.75
-1716.75
-1716.75
-1716.75
-1716.75
-1716.75
-1716.75
-1716.75
-1716.75
-1716.75
-1716.75
-1716.75
-1716.75
-1716.75
-2207.25
-2207.25
-2207.25
-2207.25
-2207.25
-2207.25
-2207.25
-2207.25
-2207.25
-2207.25
-2207.25
-2207.25
-2207.25
-2207.25
-2207.25
-2207.25
-2207.25
-2207.25
-2207.25
-2207.25
-2697.75
-2697.75
-2697.75
-2697.75
-2697.75
-2697.75
-2697.75
-2697.75
-2697.75
-2697.75
-2697.75
-2697.75
-2697.75
-2697.75
-2697.75
-2697.75
-2697.75
-2697.75
-2697.75
-2697.75
-3188.25
-3188.25
-3188.25
-3188.25
-3188.25
-3188.25
-3188.25
-3188.25
-3188.25
-3188.25
-3188.25
-3188.25
-3188.25
-3188.25
-3188.25
-3188.25
-3188.25
-3188.25
-3188.25
-3188.25
-3678.75
-3678.75
-3678.75
-3678.75
-3678.75
-3678.75
-3678.75
-3678.75
-3678.75
-3678.75
-3678.75
-3678.75
-3678.75
-3678.75
-3678.75
-3678.75
-3678.75
-3678.75
-3678.75
-3678.75
-4169.25
-4169.25
-4169.25
-4169.25
-4169.25
-4169.25
-4169.25
-4169.25
-4169.25
-4169.25
-4169.25
-4169.25
-4169.25
-4169.25
-4169.25
-4169.25
-4169.25
-4169.25
-4169.25
-4169.25
-4659.75
-4659.75
-4659.75
-4659.75
-4659.75
-4659.75
-4659.75
-4659.75
-4659.75
-4659.75
-4659.75
-4659.75
-4659.75
-4659.75
-4659.75
-4659.75
-4659.75
-4659.75
-4659.75
-4659.75
-245.25
-245.25
-245.25
-245.25
-245.25
-245.25
-245.25
-245.25
-245.25
-245.25
-245.25
-245.25
-245.25
-245.25
-245.25
-245.25
-245.25
-245.25
-245.25
-245.25
-735.75
-735.75
-735.75
-735.75
-735.75
-735.75
-735.75
-735.75
-735.75
-735.75
-735.75
-735.75
-735.75
-735.75
-735.75
-735.75
-735.75
-735.75
-735.75
-735.75
-1226.25
-1226.25
-1226.25
-1226.25
-1226.25
-1226.25
-1226.25
-1226.25
-1226.25
-1226.25
-1226.25
-1226.25
-1226.25
-1226.25
-1226.25
-1226.25
-1226.25
-1226.25
-1226.25
-1226.25
-1716.75
-1716.75
-1716.75
-1716.75
-1716.75
-1716.75
-1716.75
-1716.75
-1716.75
-1716.75
-1716.75
-1716.75
-1716.75
-1716.75
-1716.75
-1716.75
-1716.75
-1716.75
-1716.75
-1716.75
-2207.25
-2207.25
-2207.25
-2207.25
-2207.25
-2207.25
-2207.25
-2207.25
-2207.25
-2207.25
-2207.25
-2207.25
-2207.25
-2207.25
-2207.25
-2207.25
-2207.25
-2207.25
-2207.25
-2207.25
-2697.75
-2697.75
-2697.75
-2697.75
-2697.75
-2697.75
-2697.75
-2697.75
-2697.75
-2697.75
-2697.75
-2697.75
-2697.75
-2697.75
-2697.75
-2697.75
-2697.75
-2697.75
-2697.75
-2697.75
-3188.25
-3188.25
-3188.25
-3188.25
-3188.25
-3188.25
-3188.25
-3188.25
-3188.25
-3188.25
-3188.25
-3188.25
-3188.25
-3188.25
-3188.25
-3188.25
-3188.25
-3188.25
-3188.25
-3188.25
-3678.75
-3678.75
-3678.75
-3678.75
-3678.75
-3678.75
-3678.75
-3678.75
-3678.75
-3678.75
-3678.75
-3678.75
-3678.75
-3678.75
-3678.75
-3678.75
-3678.75
-3678.75
-3678.75
-3678.75
-4169.25
-4169.25
-4169.25
-4169.25
-4169.25
-4169.25
-4169.25
-4169.25
-4169.25
-4169.25
-4169.25
-4169.25
-4169.25
-4169.25
-4169.25
-4169.25
-4169.25
-4169.25
-4169.25
-4169.25
-4659.75
-4659.75
-4659.75
-4659.75
-4659.75
-4659.75
-4659.75
-4659.75
-4659.75
-4659.75
-4659.75
-4659.75
-4659.75
-4659.75
-4659.75
-4659.75
-4659.75
-4659.75
-4659.75
-4659.75
-245.25
-245.25
-245.25
-245.25
-245.25
-245.25
-245.25
-245.25
-245.25
-245.25
-245.25
-245.25
-245.25
-245.25
-245.25
-245.25
-245.25
-245.25
-245.25
-245.25
-735.75
-735.75
-735.75
-735.75
-735.75
-735.75
-735.75
-735.75
-735.75
-735.75
-735.75
-735.75
-735.75
-735.75
-735.75
-735.75
-735.75
-735.75
-735.75
-735.75
-1226.25
-1226.25
-1226.25
-1226.25
-1226.25
-1226.25
-1226.25
-1226.25
-1226.25
-1226.25
-1226.25
-1226.25
-1226.25
-1226.25
-1226.25
-1226.25
-1226.25
-1226.25
-1226.25
-1226.25
-1716.75
-1716.75
-1716.75
-1716.75
-1716.75
-1716.75
-1716.75
-1716.75
-1716.75
-1716.75
-1716.75
-1716.75
-1716.75
-1716.75
-1716.75
-1716.75
-1716.75
-1716.75
-1716.75
-1716.75
-2207.25
-2207.25
-2207.25
-2207.25
-2207.25
-2207.25
-2207.25
-2207.25
-2207.25
-2207.25
-2207.25
-2207.25
-2207.25
-2207.25
-2207.25
-2207.25
-2207.25
-2207.25
-2207.25
-2207.25
-2697.75
-2697.75
-2697.75
-2697.75
-2697.75
-2697.75
-2697.75
-2697.75
-2697.75
-2697.75
-2697.75
-2697.75
-2697.75
-2697.75
-2697.75
-2697.75
-2697.75
-2697.75
-2697.75
-2697.75
-3188.25
-3188.25
-3188.25
-3188.25
-3188.25
-3188.25
-3188.25
-3188.25
-3188.25
-3188.25
-3188.25
-3188.25
-3188.25
-3188.25
-3188.25
-3188.25
-3188.25
-3188.25
-3188.25
-3188.25
-3678.75
-3678.75
-3678.75
-3678.75
-3678.75
-3678.75
-3678.75
-3678.75
-3678.75
-3678.75
-3678.75
-3678.75
-3678.75
-3678.75
-3678.75
-3678.75
-3678.75
-3678.75
-3678.75
-3678.75
-4169.25
-4169.25
-4169.25
-4169.25
-4169.25
-4169.25
-4169.25
-4169.25
-4169.25
-4169.25
-4169.25
-4169.25
-4169.25
-4169.25
-4169.25
-4169.25
-4169.25
-4169.25
-4169.25
-4169.25
-4659.75
-4659.75
-4659.75
-4659.75
-4659.75
-4659.75
-4659.75
-4659.75
-4659.75
-4659.75
-4659.75
-4659.75
-4659.75
-4659.75
-4659.75
-4659.75
-4659.75
-4659.75
-4659.75
-4659.75
-245.25
-245.25
-245.25
-245.25
-245.25
-245.25
-245.25
-245.25
-245.25
-245.25
-245.25
-245.25
-245.25
-245.25
-245.25
-245.25
-245.25
-245.25
-245.25
-245.25
-735.75
-735.75
-735.75
-735.75
-735.75
-735.75
-735.75
-735.75
-735.75
-735.75
-735.75
-735.75
-735.75
-735.75
-735.75
-735.75
-735.75
-735.75
-735.75
-735.75
-1226.25
-1226.25
-1226.25
-1226.25
-1226.25
-1226.25
-1226.25
-1226.25
-1226.25
-1226.25
-1226.25
-1226.25
-1226.25
-1226.25
-1226.25
-1226.25
-1226.25
-1226.25
-1226.25
-1226.25
-1716.75
-1716.75
-1716.75
-1716.75
-1716.75
-1716.75
-1716.75
-1716.75
-1716.75
-1716.75
-1716.75
-1716.75
-1716.75
-1716.75
-1716.75
-1716.75
-1716.75
-1716.75
-1716.75
-1716.75
-2207.25
-2207.25
-2207.25
-2207.25
-2207.25
-2207.25
-2207.25
-2207.25
-2207.25
-2207.25
-2207.25
-2207.25
-2207.25
-2207.25
-2207.25
-2207.25
-2207.25
-2207.25
-2207.25
-2207.25
-2697.75
-2697.75
-2697.75
-2697.75
-2697.75
-2697.75
-2697.75
-2697.75
-2697.75
-2697.75
-2697.75
-2697.75
-2697.75
-2697.75
-2697.75
-2697.75
-2697.75
-2697.75
-2697.75
-2697.75
-3188.25
-3188.25
-3188.25
-3188.25
-3188.25
-3188.25
-3188.25
-3188.25
-3188.25
-3188.25
-3188.25
-3188.25
-3188.25
-3188.25
-3188.25
-3188.25
-3188.25
-3188.25
-3188.25
-3188.25
-3678.75
-3678.75
-3678.75
-3678.75
-3678.75
-3678.75
-3678.75
-3678.75
-3678.75
-3678.75
-3678.75
-3678.75
-3678.75
-3678.75
-3678.75
-3678.75
-3678.75
-3678.75
-3678.75
-3678.75
-4169.25
-4169.25
-4169.25
-4169.25
-4169.25
-4169.25
-4169.25
-4169.25
-4169.25
-4169.25
-4169.25
-4169.25
-4169.25
-4169.25
-4169.25
-4169.25
-4169.25
-4169.25
-4169.25
-4169.25
-4659.75
-4659.75
-4659.75
-4659.75
-4659.75
-4659.75
-4659.75
-4659.75
-4659.75
-4659.75
-4659.75
-4659.75
-4659.75
-4659.75
-4659.75
-4659.75
-4659.75
-4659.75
-4659.75
-4659.75
-245.25
-245.25
-245.25
-245.25
-245.25
-245.25
-245.25
-245.25
-245.25
-245.25
-245.25
-245.25
-245.25
-245.25
-245.25
-245.25
-245.25
-245.25
-245.25
-245.25
-735.75
-735.75
-735.75
-735.75
-735.75
-735.75
-735.75
-735.75
-735.75
-735.75
-735.75
-735.75
-735.75
-735.75
-735.75
-735.75
-735.75
-735.75
-735.75
-735.75
-1226.25
-1226.25
-1226.25
-1226.25
-1226.25
-1226.25
-1226.25
-1226.25
-1226.25
-1226.25
-1226.25
-1226.25
-1226.25
-1226.25
-1226.25
-1226.25
-1226.25
-1226.25
-1226.25
-1226.25
-1716.75
-1716.75
-1716.75
-1716.75
-1716.75
-1716.75
-1716.75
-1716.75
-1716.75
-1716.75
-1716.75
-1716.75
-1716.75
-1716.75
-1716.75
-1716.75
-1716.75
-1716.75
-1716.75
-1716.75
-2207.25
-2207.25
-2207.25
-2207.25
-2207.25
-2207.25
-2207.25
-2207.25
-2207.25
-2207.25
-2207.25
-2207.25
-2207.25
-2207.25
-2207.25
-2207.25
-2207.25
-2207.25
-2207.25
-2207.25
-2697.75
-2697.75
-2697.75
-2697.75
-2697.75
-2697.75
-2697.75
-2697.75
-2697.75
-2697.75
-2697.75
-2697.75
-2697.75
-2697.75
-2697.75
-2697.75
-2697.75
-2697.75
-2697.75
-2697.75
-3188.25
-3188.25
-3188.25
-3188.25
-3188.25
-3188.25
-3188.25
-3188.25
-3188.25
-3188.25
-3188.25
-3188.25
-3188.25
-3188.25
-3188.25
-3188.25
-3188.25
-3188.25
-3188.25
-3188.25
-3678.75
-3678.75
-3678.75
-3678.75
-3678.75
-3678.75
-3678.75
-3678.75
-3678.75
-3678.75
-3678.75
-3678.75
-3678.75
-3678.75
-3678.75
-3678.75
-3678.75
-3678.75
-3678.75
-3678.75
-4169.25
-4169.25
-4169.25
-4169.25
-4169.25
-4169.25
-4169.25
-4169.25
-4169.25
-4169.25
-4169.25
-4169.25
-4169.25
-4169.25
-4169.25
-4169.25
-4169.25
-4169.25
-4169.25
-4169.25
-4659.75
-4659.75
-4659.75
-4659.75
-4659.75
-4659.75
-4659.75
-4659.75
-4659.75
-4659.75
-4659.75
-4659.75
-4659.75
-4659.75
-4659.75
-4659.75
-4659.75
-4659.75
-4659.75
-4659.75
-245.25
-245.25
-245.25
-245.25
-245.25
-245.25
-245.25
-245.25
-245.25
-245.25
-245.25
-245.25
-245.25
-245.25
-245.25
-245.25
-245.25
-245.25
-245.25
-245.25
-735.75
-735.75
-735.75
-735.75
-735.75
-735.75
-735.75
-735.75
-735.75
-735.75
-735.75
-735.75
-735.75
-735.75
-735.75
-735.75
-735.75
-735.75
-735.75
-735.75
-1226.25
-1226.25
-1226.25
-1226.25
-1226.25
-1226.25
-1226.25
-1226.25
-1226.25
-1226.25
-1226.25
-1226.25
-1226.25
-1226.25
-1226.25
-1226.25
-1226.25
-1226.25
-1226.25
-1226.25
-1716.75
-1716.75
-1716.75
-1716.75
-1716.75
-1716.75
-1716.75
-1716.75
-1716.75
-1716.75
-1716.75
-1716.75
-1716.75
-1716.75
-1716.75
-1716.75
-1716.75
-1716.75
-1716.75
-1716.75
-2207.25
-2207.25
-2207.25
-2207.25
-2207.25
-2207.25
-2207.25
-2207.25
-2207.25
-2207.25
-2207.25
-2207.25
-2207.25
-2207.25
-2207.25
-2207.25
-2207.25
-2207.25
-2207.25
-2207.25
-2697.75
-2697.75
-2697.75
-2697.75
-2697.75
-2697.75
-2697.75
-2697.75
-2697.75
-2697.75
-2697.75
-2697.75
-2697.75
-2697.75
-2697.75
-2697.75
-2697.75
-2697.75
-2697.75
-2697.75
-3188.25
-3188.25
-3188.25
-3188.25
-3188.25
-3188.25
-3188.25
-3188.25
-3188.25
-3188.25
-3188.25
-3188.25
-3188.25
-3188.25
-3188.25
-3188.25
-3188.25
-3188.25
-3188.25
-3188.25
-3678.75
-3678.75
-3678.75
-3678.75
-3678.75
-3678.75
-3678.75
-3678.75
-3678.75
-3678.75
-3678.75
-3678.75
-3678.75
-3678.75
-3678.75
-3678.75
-3678.75
-3678.75
-3678.75
-3678.75
-4169.25
-4169.25
-4169.25
-4169.25
-4169.25
-4169.25
-4169.25
-4169.25
-4169.25
-4169.25
-4169.25
-4169.25
-4169.25
-4169.25
-4169.25
-4169.25
-4169.25
-4169.25
-4169.25
-4169.25
-4659.75
-4659.75
-4659.75
-4659.75
-4659.75
-4659.75
-4659.75
-4659.75
-4659.75
-4659.75
-4659.75
-4659.75
-4659.75
-4659.75
-4659.75
-4659.75
-4659.75
-4659.75
-4659.75
-4659.75
-245.25
-245.25
-245.25
-245.25
-245.25
-245.25
-245.25
-245.25
-245.25
-245.25
-245.25
-245.25
-245.25
-245.25
-245.25
-245.25
-245.25
-245.25
-245.25
-245.25
-735.75
-735.75
-735.75
-735.75
-735.75
-735.75
-735.75
-735.75
-735.75
-735.75
-735.75
-735.75
-735.75
-735.75
-735.75
-735.75
-735.75
-735.75
-735.75
-735.75
-1226.25
-1226.25
-1226.25
-1226.25
-1226.25
-1226.25
-1226.25
-1226.25
-1226.25
-1226.25
-1226.25
-1226.25
-1226.25
-1226.25
-1226.25
-1226.25
-1226.25
-1226.25
-1226.25
-1226.25
-1716.75
-1716.75
-1716.75
-1716.75
-1716.75
-1716.75
-1716.75
-1716.75
-1716.75
-1716.75
-1716.75
-1716.75
-1716.75
-1716.75
-1716.75
-1716.75
-1716.75
-1716.75
-1716.75
-1716.75
-2207.25
-2207.25
-2207.25
-2207.25
-2207.25
-2207.25
-2207.25
-2207.25
-2207.25
-2207.25
-2207.25
-2207.25
-2207.25
-2207.25
-2207.25
-2207.25
-2207.25
-2207.25
-2207.25
-2207.25
-2697.75
-2697.75
-2697.75
-2697.75
-2697.75
-2697.75
-2697.75
-2697.75
-2697.75
-2697.75
-2697.75
-2697.75
-2697.75
-2697.75
-2697.75
-2697.75
-2697.75
-2697.75
-2697.75
-2697.75
-3188.25
-3188.25
-3188.25
-3188.25
-3188.25
-3188.25
-3188.25
-3188.25
-3188.25
-3188.25
-3188.25
-3188.25
-3188.25
-3188.25
-3188.25
-3188.25
-3188.25
-3188.25
-3188.25
-3188.25
-3678.75
-3678.75
-3678.75
-3678.75
-3678.75
-3678.75
-3678.75
-3678.75
-3678.75
-3678.75
-3678.75
-3678.75
-3678.75
-3678.75
-3678.75
-3678.75
-3678.75
-3678.75
-3678.75
-3678.75
-4169.25
-4169.25
-4169.25
-4169.25
-4169.25
-4169.25
-4169.25
-4169.25
-4169.25
-4169.25
-4169.25
-4169.25
-4169.25
-4169.25
-4169.25
-4169.25
-4169.25
-4169.25
-4169.25
-4169.25
-4659.75
-4659.75
-4659.75
-4659.75
-4659.75
-4659.75
-4659.75
-4659.75
-4659.75
-4659.75
-4659.75
-4659.75
-4659.75
-4659.75
-4659.75
-4659.75
-4659.75
-4659.75
-4659.75
-4659.75
-245.25
-245.25
-245.25
-245.25
-245.25
-245.25
-245.25
-245.25
-245.25
-245.25
-245.25
-245.25
-245.25
-245.25
-245.25
-245.25
-245.25
-245.25
-245.25
-245.25
-735.75
-735.75
-735.75
-735.75
-735.75
-735.75
-735.75
-735.75
-735.75
-735.75
-735.75
-735.75
-735.75
-735.75
-735.75
-735.75
-735.75
-735.75
-735.75
-735.75
-1226.25
-1226.25
-1226.25
-1226.25
-1226.25
-1226.25
-1226.25
-1226.25
-1226.25
-1226.25
-1226.25
-1226.25
-1226.25
-1226.25
-1226.25
-1226.25
-1226.25
-1226.25
-1226.25
-1226.25
-1716.75
-1716.75
-1716.75
-1716.75
-1716.75
-1716.75
-1716.75
-1716.75
-1716.75
-1716.75
-1716.75
-1716.75
-1716.75
-1716.75
-1716.75
-1716.75
-1716.75
-1716.75
-1716.75
-1716.75
-2207.25
-2207.25
-2207.25
-2207.25
-2207.25
-2207.25
-2207.25
-2207.25
-2207.25
-2207.25
-2207.25
-2207.25
-2207.25
-2207.25
-2207.25
-2207.25
-2207.25
-2207.25
-2207.25
-2207.25
-2697.75
-2697.75
-2697.75
-2697.75
-2697.75
-2697.75
-2697.75
-2697.75
-2697.75
-2697.75
-2697.75
-2697.75
-2697.75
-2697.75
-2697.75
-2697.75
-2697.75
-2697.75
-2697.75
-2697.75
-3188.25
-3188.25
-3188.25
-3188.25
-3188.25
-3188.25
-3188.25
-3188.25
-3188.25
-3188.25
-3188.25
-3188.25
-3188.25
-3188.25
-3188.25
-3188.25
-3188.25
-3188.25
-3188.25
-3188.25
-3678.75
-3678.75
-3678.75
-3678.75
-3678.75
-3678.75
-3678.75
-3678.75
-3678.75
-3678.75
-3678.75
-3678.75
-3678.75
-3678.75
-3678.75
-3678.75
-3678.75
-3678.75
-3678.75
-3678.75
-4169.25
-4169.25
-4169.25
-4169.25
-4169.25
-4169.25
-4169.25
-4169.25
-4169.25
-4169.25
-4169.25
-4169.25
-4169.25
-4169.25
-4169.25
-4169.25
-4169.25
-4169.25
-4169.25
-4169.25
-4659.75
-4659.75
-4659.75
-4659.75
-4659.75
-4659.75
-4659.75
-4659.75
-4659.75
-4659.75
-4659.75
-4659.75
-4659.75
-4659.75
-4659.75
-4659.75
-4659.75
-4659.75
-4659.75
-4659.75
-245.25
-245.25
-245.25
-245.25
-245.25
-245.25
-245.25
-245.25
-245.25
-245.25
-245.25
-245.25
-245.25
-245.25
-245.25
-245.25
-245.25
-245.25
-245.25
-245.25
-735.75
-735.75
-735.75
-735.75
-735.75
-735.75
-735.75
-735.75
-735.75
-735.75
-735.75
-735.75
-735.75
-735.75
-735.75
-735.75
-735.75
-735.75
-735.75
-735.75
-1226.25
-1226.25
-1226.25
-1226.25
-1226.25
-1226.25
-1226.25
-1226.25
-1226.25
-1226.25
-1226.25
-1226.25
-1226.25
-1226.25
-1226.25
-1226.25
-1226.25
-1226.25
-1226.25
-1226.25
-1716.75
-1716.75
-1716.75
-1716.75
-1716.75
-1716.75
-1716.75
-1716.75
-1716.75
-1716.75
-1716.75
-1716.75
-1716.75
-1716.75
-1716.75
-1716.75
-1716.75
-1716.75
-1716.75
-1716.75
-2207.25
-2207.25
-2207.25
-2207.25
-2207.25
-2207.25
-2207.25
-2207.25
-2207.25
-2207.25
-2207.25
-2207.25
-2207.25
-2207.25
-2207.25
-2207.25
-2207.25
-2207.25
-2207.25
-2207.25
-2697.75
-2697.75
-2697.75
-2697.75
-2697.75
-2697.75
-2697.75
-2697.75
-2697.75
-2697.75
-2697.75
-2697.75
-2697.75
-2697.75
-2697.75
-2697.75
-2697.75
-2697.75
-2697.75
-2697.75
-3188.25
-3188.25
-3188.25
-3188.25
-3188.25
-3188.25
-3188.25
-3188.25
-3188.25
-3188.25
-3188.25
-3188.25
-3188.25
-3188.25
-3188.25
-3188.25
-3188.25
-3188.25
-3188.25
-3188.25
-3678.75
-3678.75
-3678.75
-3678.75
-3678.75
-3678.75
-3678.75
-3678.75
-3678.75
-3678.75
-3678.75
-3678.75
-3678.75
-3678.75
-3678.75
-3678.75
-3678.75
-3678.75
-3678.75
-3678.75
-4169.25
-4169.25
-4169.25
-4169.25
-4169.25
-4169.25
-4169.25
-4169.25
-4169.25
-4169.25
-4169.25
-4169.25
-4169.25
-4169.25
-4169.25
-4169.25
-4169.25
-4169.25
-4169.25
-4169.25
-4659.75
-4659.75
-4659.75
-4659.75
-4659.75
-4659.75
-4659.75
-4659.75
-4659.75
-4659.75
-4659.75
-4659.75
-4659.75
-4659.75
-4659.75
-4659.75
-4659.75
-4659.75
-4659.75
-4659.75
-245.25
-245.25
-245.25
-245.25
-245.25
-245.25
-245.25
-245.25
-245.25
-245.25
-245.25
-245.25
-245.25
-245.25
-245.25
-245.25
-245.25
-245.25
-245.25
-245.25
-735.75
-735.75
-735.75
-735.75
-735.75
-735.75
-735.75
-735.75
-735.75
-735.75
-735.75
-735.75
-735.75
-735.75
-735.75
-735.75
-735.75
-735.75
-735.75
-735.75
-1226.25
-1226.25
-1226.25
-1226.25
-1226.25
-1226.25
-1226.25
-1226.25
-1226.25
-1226.25
-1226.25
-1226.25
-1226.25
-1226.25
-1226.25
-1226.25
-1226.25
-1226.25
-1226.25
-1226.25
-1716.75
-1716.75
-1716.75
-1716.75
-1716.75
-1716.75
-1716.75
-1716.75
-1716.75
-1716.75
-1716.75
-1716.75
-1716.75
-1716.75
-1716.75
-1716.75
-1716.75
-1716.75
-1716.75
-1716.75
-2207.25
-2207.25
-2207.25
-2207.25
-2207.25
-2207.25
-2207.25
-2207.25
-2207.25
-2207.25
-2207.25
-2207.25
-2207.25
-2207.25
-2207.25
-2207.25
-2207.25
-2207.25
-2207.25
-2207.25
-2697.75
-2697.75
-2697.75
-2697.75
-2697.75
-2697.75
-2697.75
-2697.75
-2697.75
-2697.75
-2697.75
-2697.75
-2697.75